/*--------------------------------*- C++ -*----------------------------------*\
| =========                 |                                                 |
| \\      /  F ield         | OpenFOAM: The Open Source CFD Toolbox           |
|  \\    /   O peration     | Version:  2012                                  |
|   \\  /    A nd           | Website:  www.openfoam.com                      |
|    \\/     M anipulation  |                                                 |
\*---------------------------------------------------------------------------*/
FoamFile
{
    version     2.0;
    format      ascii;
    class       featureEdgeMesh;
    location    "constant/triSurface";
    object      coils3Simp.eMesh;
}
// * * * * * * * * * * * * * * * * * * * * * * * * * * * * * * * * * * * * * //


// points:

72
(
(0.16239411 0.30000001 0.4454222)
(0.1612155 0.30000001 0.4451063)
(0.16 0.30000001 0.44499999)
(0.15878449 0.30000001 0.4451063)
(0.1653623 0.30000001 0.4475005)
(0.16449951 0.30000001 0.44663769)
(0.1635 0.30000001 0.44593781)
(0.16689371 0.30000001 0.4507845)
(0.1665778 0.30000001 0.44960591)
(0.16606221 0.30000001 0.44850001)
(0.1665778 0.30000001 0.4543941)
(0.16689371 0.30000001 0.45321551)
(0.167 0.30000001 0.45199999)
(0.16449951 0.30000001 0.45736229)
(0.1653623 0.30000001 0.45649949)
(0.16606221 0.30000001 0.45550001)
(0.1612155 0.30000001 0.45889369)
(0.16239411 0.30000001 0.45857781)
(0.1635 0.30000001 0.4580622)
(0.1576059 0.30000001 0.45857781)
(0.15878449 0.30000001 0.45889369)
(0.16 0.30000001 0.45899999)
(0.15463769 0.30000001 0.45649949)
(0.1555005 0.30000001 0.45736229)
(0.1565 0.30000001 0.4580622)
(0.1531063 0.30000001 0.45321551)
(0.1534221 0.30000001 0.4543941)
(0.1539378 0.30000001 0.45550001)
(0.1534221 0.30000001 0.44960591)
(0.1531063 0.30000001 0.4507845)
(0.153 0.30000001 0.45199999)
(0.1555005 0.30000001 0.44663769)
(0.15463769 0.30000001 0.4475005)
(0.1539378 0.30000001 0.44850001)
(0.1576059 0.30000001 0.4454222)
(0.1565 0.30000001 0.44593781)
(0.2123941 0.30000001 0.4454222)
(0.2112155 0.30000001 0.4451063)
(0.20999999 0.30000001 0.44499999)
(0.20878451 0.30000001 0.4451063)
(0.2153623 0.30000001 0.4475005)
(0.2144995 0.30000001 0.44663769)
(0.21349999 0.30000001 0.44593781)
(0.2168937 0.30000001 0.4507845)
(0.2165778 0.30000001 0.44960591)
(0.2160622 0.30000001 0.44850001)
(0.2165778 0.30000001 0.4543941)
(0.2168937 0.30000001 0.45321551)
(0.21699999 0.30000001 0.45199999)
(0.2144995 0.30000001 0.45736229)
(0.2153623 0.30000001 0.45649949)
(0.2160622 0.30000001 0.45550001)
(0.2112155 0.30000001 0.45889369)
(0.2123941 0.30000001 0.45857781)
(0.21349999 0.30000001 0.4580622)
(0.2076059 0.30000001 0.45857781)
(0.20878451 0.30000001 0.45889369)
(0.20999999 0.30000001 0.45899999)
(0.20463771 0.30000001 0.45649949)
(0.2055005 0.30000001 0.45736229)
(0.20649999 0.30000001 0.4580622)
(0.2031063 0.30000001 0.45321551)
(0.2034222 0.30000001 0.4543941)
(0.2039378 0.30000001 0.45550001)
(0.2034222 0.30000001 0.44960591)
(0.2031063 0.30000001 0.4507845)
(0.20299999 0.30000001 0.45199999)
(0.2055005 0.30000001 0.44663769)
(0.20463771 0.30000001 0.4475005)
(0.2039378 0.30000001 0.44850001)
(0.2076059 0.30000001 0.4454222)
(0.20649999 0.30000001 0.44593781)
)


// edges:

72
(
(0 1)
(1 2)
(2 3)
(4 5)
(5 6)
(6 0)
(7 8)
(8 9)
(9 4)
(10 11)
(11 12)
(12 7)
(13 14)
(14 15)
(15 10)
(16 17)
(17 18)
(18 13)
(19 20)
(20 21)
(21 16)
(22 23)
(23 24)
(24 19)
(25 26)
(26 27)
(27 22)
(28 29)
(29 30)
(30 25)
(31 32)
(32 33)
(33 28)
(3 34)
(34 35)
(35 31)
(36 37)
(37 38)
(38 39)
(40 41)
(41 42)
(42 36)
(43 44)
(44 45)
(45 40)
(46 47)
(47 48)
(48 43)
(49 50)
(50 51)
(51 46)
(52 53)
(53 54)
(54 49)
(55 56)
(56 57)
(57 52)
(58 59)
(59 60)
(60 55)
(61 62)
(62 63)
(63 58)
(64 65)
(65 66)
(66 61)
(67 68)
(68 69)
(69 64)
(39 70)
(70 71)
(71 67)
)

// * * * * * * * * * * * * * * * * * * * * * * * * * * * * * * * * * * * * * //


// ************************************************************************* //
