/*--------------------------------*- C++ -*----------------------------------*\
| =========                 |                                                 |
| \\      /  F ield         | OpenFOAM: The Open Source CFD Toolbox           |
|  \\    /   O peration     | Version:  2012                                  |
|   \\  /    A nd           | Website:  www.openfoam.com                      |
|    \\/     M anipulation  |                                                 |
\*---------------------------------------------------------------------------*/
FoamFile
{
    version     2.0;
    format      ascii;
    class       extendedFeatureEdgeMesh;
    location    "constant/extendedFeatureEdgeMesh";
    object      coils3.extendedFeatureEdgeMesh;
}
// * * * * * * * * * * * * * * * * * * * * * * * * * * * * * * * * * * * * * //

// points

83
(
(0.21606851 0.30000001 0.45548749)
(0.2165793 0.30000001 0.4543891)
(0.2169788 0.30000001 0.45254311)
(0.2168511 0.30000001 0.4534353)
(0.21697301 0.30000001 0.45138809)
(0.2167781 0.30000001 0.4502528)
(0.2164057 0.30000001 0.44917911)
(0.2158726 0.30000001 0.44819239)
(0.2151987 0.30000001 0.44731441)
(0.2144061 0.30000001 0.4465628)
(0.21346401 0.30000001 0.44591939)
(0.21250591 0.30000001 0.4454661)
(0.2115037 0.30000001 0.4451656)
(0.21048421 0.30000001 0.4450188)
(0.20933279 0.30000001 0.4450337)
(0.2082632 0.30000001 0.4452205)
(0.2072347 0.30000001 0.44557059)
(0.2062702 0.30000001 0.44607729)
(0.2053322 0.30000001 0.44678411)
(0.20457651 0.30000001 0.4475745)
(0.2039526 0.30000001 0.4484742)
(0.203435 0.30000001 0.44957021)
(0.2031485 0.30000001 0.45056471)
(0.203117 0.2999953 0.45072451)
(0.21678691 0.2999917 0.45371321)
(0.2030177 0.30000001 0.45150229)
(0.2030312 0.30000001 0.45265689)
(0.2032336 0.30000001 0.45379019)
(0.2036128 0.30000001 0.4548609)
(0.204152 0.30000001 0.45584369)
(0.2048312 0.30000001 0.45671681)
(0.2056281 0.30000001 0.457463)
(0.2065707 0.30000001 0.4580985)
(0.2075309 0.30000001 0.4585461)
(0.2085342 0.30000001 0.45884091)
(0.2095539 0.30000001 0.45898199)
(0.21070769 0.30000001 0.45896059)
(0.2117759 0.30000001 0.45876771)
(0.2128025 0.30000001 0.45841151)
(0.2146991 0.30000001 0.4571861)
(0.2137641 0.30000001 0.45789921)
(0.21545 0.30000001 0.45639101)
(0.21639229 0.29995701 0.45485151)
(0.15736251 0.30000001 0.44551751)
(0.1583584 0.30000001 0.44519699)
(0.1593748 0.30000001 0.44502991)
(0.16052631 0.30000001 0.44502181)
(0.1615995 0.30000001 0.44518709)
(0.1626348 0.30000001 0.44551671)
(0.1636094 0.30000001 0.446004)
(0.1645615 0.30000001 0.44669181)
(0.165333 0.30000001 0.447467)
(0.165975 0.30000001 0.44835401)
(0.16651469 0.30000001 0.44943941)
(0.1668559 0.30000001 0.45058721)
(0.16699579 0.30000001 0.45175791)
(0.1669625 0.30000001 0.45272231)
(0.16675089 0.30000001 0.45384941)
(0.1663636 0.30000001 0.4549143)
(0.1658179 0.30000001 0.4558903)
(0.1651336 0.30000001 0.4567562)
(0.1554848 0.30000001 0.446652)
(0.1564137 0.30000001 0.44598991)
(0.1547076 0.30000001 0.44741929)
(0.1540515 0.30000001 0.44831049)
(0.15353841 0.30000001 0.44930771)
(0.1531879 0.30000001 0.4503887)
(0.1530159 0.30000001 0.4515276)
(0.15303349 0.30000001 0.4526825)
(0.153249 0.30000001 0.4538486)
(0.1536665 0.30000001 0.4549787)
(0.1542802 0.30000001 0.45603269)
(0.1549793 0.30000001 0.45687479)
(0.1558 0.30000001 0.45759681)
(0.1567571 0.30000001 0.4582001)
(0.1577581 0.30000001 0.4586277)
(0.1588093 0.30000001 0.45889431)
(0.16 0.30000001 0.4589963)
(0.1608465 0.30000001 0.45894501)
(0.1618606 0.30000001 0.4587447)
(0.16284829 0.30000001 0.45839101)
(0.1637961 0.30000001 0.4578782)
(0.1643333 0.30000001 0.45749459)
)

// edges

84
(
(2 3)
(4 2)
(5 4)
(6 5)
(7 6)
(8 7)
(9 8)
(10 9)
(11 10)
(12 11)
(13 12)
(14 13)
(15 14)
(16 15)
(17 16)
(18 17)
(19 18)
(20 19)
(21 20)
(22 21)
(23 22)
(3 24)
(23 25)
(26 25)
(27 26)
(28 27)
(29 28)
(30 29)
(31 30)
(32 31)
(33 32)
(34 33)
(35 34)
(36 35)
(37 36)
(38 37)
(39 40)
(40 38)
(41 39)
(0 41)
(1 24)
(42 0)
(42 1)
(1 0)
(43 44)
(44 45)
(45 46)
(46 47)
(47 48)
(48 49)
(49 50)
(50 51)
(51 52)
(52 53)
(53 54)
(54 55)
(55 56)
(56 57)
(57 58)
(58 59)
(59 60)
(61 62)
(62 43)
(63 61)
(64 63)
(65 64)
(66 65)
(67 66)
(68 67)
(69 68)
(70 69)
(71 70)
(72 71)
(73 72)
(74 73)
(75 74)
(76 75)
(77 76)
(78 77)
(79 78)
(80 79)
(81 80)
(82 81)
(60 82)
)

// concaveStart mixedStart nonFeatureStart
2 2 2
// internalStart flatStart openStart multipleStart
84 84 84 84
// normals

160
(
(0.9899111 0 0.14168985)
(0 1 0)
(0.99998741 0 -0.0050185146)
(0 1 0)
(0.98558086 0 -0.16920509)
(-0 1 0)
(0.94478636 0 -0.32768695)
(0 1 0)
(0.87980383 0 -0.47533695)
(0 1 -0)
(0.79326169 0 -0.60888085)
(0 1 0)
(0.68810025 0 -0.72561563)
(0 1 0)
(0.56397338 0 -0.82579297)
(0 1 0)
(0.42766749 0 -0.90393612)
(0 1 0)
(0.28720285 0 -0.95786978)
(0 1 0)
(0.14252915 0 -0.9897906)
(0 1 0)
(-0.01294055 0 -0.99991627)
(0 1 0)
(-0.17204309 0 -0.98508942)
(0 1 0)
(-0.32222876 0 -0.94666183)
(0 1 0)
(-0.46507888 0 -0.88526925)
(-0 1 -0)
(-0.60180919 0 -0.7986399)
(0 1 0)
(-0.7227904 0 -0.69106731)
(-0.82174706 0 -0.56985242)
(0 1 0)
(-0.90423863 0 -0.42702753)
(0 1 0)
(-0.96091909 -0 -0.27682936)
(-0 1 -0)
(-0.98111882 0 -0.19340593)
(-0.454412 0.88853294 -0.06339524)
(0.97434363 0 0.22506554)
(0.48027431 0.86637499 0.13686107)
(-0.99194815 0 -0.12664462)
(-0.87445183 0.48500459 0.010224735)
(0 1 0)
(-0.96319465 0.20655263 0.17202347)
(0 1 0)
(-0.9336138 0.13796785 0.3306511)
(0 1 0)
(-0.87191026 0.10459261 0.47836481)
(0 1 0)
(-0.78640796 0.08563243 0.61174309)
(-0 1 0)
(-0.68163971 0.07374998 0.7279617)
(-0 1 0)
(-0.55764564 0.07003408 0.82711944)
(0 1 0)
(-0.4225035 0 0.90636129)
(0 1 0)
(-0.2819179 0 0.95943853)
(-0 1 0)
(-0.13705276 0 0.99056375)
(0 1 0)
(0.018410006 0.11937292 0.99267879)
(0 1 0)
(0.17769176 0 0.98408619)
(0 1 0)
(0.32779718 0 0.94474812)
(0 1 0)
(0.59634668 0.18163508 0.7819075)
(0 1 0)
(0.46601897 0.13295822 0.87472763)
(0 1 0)
(0.7125507 0.19854511 0.6729423)
(0.7950476 0.26775267 0.54424978)
(0 1 0)
(0.95592289 0 0.29361783)
(0.89115467 0 0.45369962)
(0.7806043 0.5088018 0.36301192)
(0.92705661 0 0.37492139)
(0 1 0)
(-0.30637016 0 -0.95191246)
(-0 1 0)
(-0.16219811 0 -0.98675821)
(0 1 0)
(-0.0070395274 0 -0.99997522)
(0 1 0)
(0.15221599 0 -0.98834725)
(0 1 -0)
(0.30337008 0 -0.95287281)
(0 1 0)
(0.4472136 0 -0.89442719)
(0 1 0)
(0.58559338 0 -0.81060495)
(0 1 -0)
(0.70878744 0 -0.70542212)
(0 1 0)
(0.81007808 0 -0.58632201)
(0 1 0)
(0.89541826 0 -0.44522595)
(0 1 0)
(0.95854389 0 -0.28494493)
(0.99293604 0 -0.11865083)
(0 1 -0)
(0.99940479 -0 0.034497378)
(0 1 0)
(0.98282773 -0 0.18452546)
(0 1 0)
(0.93977614 -0 0.34179058)
(0 1 0)
(0.87283464 -0 0.48801608)
(0 1 0)
(0.78457612 -0 0.62003251)
(0 1 0)
(-0.58041493 0 -0.81432089)
(0 1 0)
(-0.4457002 0 -0.89518229)
(-0 1 0)
(-0.70255561 0 -0.71162885)
(0 1 0)
(-0.80530688 0 -0.59285818)
(0 1 0)
(-0.88920148 0 -0.45751583)
(0 1 0)
(-0.95124507 0 -0.30843607)
(0 1 -0)
(-0.98878687 0 -0.1493336)
(0 1 0)
(-0.99988392 0 0.015236154)
(0 1 0)
(-0.9833491 0 0.18172657)
(0 1 0)
(-0.93803401 0 0.34654321)
(0 1 0)
(-0.86417922 0 0.50318415)
(-0.76940736 0 0.63875842)
(0 1 0)
(-0.66052894 0 0.75080059)
(-0 1 0)
(-0.53323659 0 0.84596616)
(0 1 -0)
(-0.39283519 0 0.91960889)
(0 1 0)
(-0.24584159 0 0.96931002)
(-0 1 0)
(-0.08533819 0 0.99635204)
(0 1 0)
(0.060479145 0 0.99816946)
(0 1 0)
(0.19377306 0 0.98104638)
(0 1 0)
(0.33713618 0 0.94145589)
(0 1 0)
(0.47586348 0 0.87951916)
(0 1 0)
(0.58113783 0 0.81380515)
(0 1 0)
(0.67810502 0 0.73496502)
(0 1 0)
)

// normal volume types

160
(
0
0
0
0
0
0
0
0
0
0
0
0
0
0
0
0
0
0
0
0
0
0
0
0
0
0
0
0
0
0
0
0
0
0
0
0
0
0
0
0
0
0
0
0
0
0
0
0
0
0
0
0
0
0
0
0
0
0
0
0
0
0
0
0
0
0
0
0
0
0
0
0
0
0
0
0
0
0
0
0
0
0
0
0
0
0
0
0
0
0
0
0
0
0
0
0
0
0
0
0
0
0
0
0
0
0
0
0
0
0
0
0
0
0
0
0
0
0
0
0
0
0
0
0
0
0
0
0
0
0
0
0
0
0
0
0
0
0
0
0
0
0
0
0
0
0
0
0
0
0
0
0
0
0
0
0
0
0
0
0
)

// normalDirections

84
(
2(1 -1)
2(1 -1)
2(1 -1)
2(1 -1)
2(1 -1)
2(1 -1)
2(1 -1)
2(1 -1)
2(1 -1)
2(1 -1)
2(1 -1)
2(1 -1)
2(1 -1)
2(1 -1)
2(1 -1)
2(1 -1)
2(1 -1)
2(1 -1)
2(1 -1)
2(1 -1)
2(1 -1)
2(1 -1)
2(1 -1)
2(1 -1)
2(1 -1)
2(1 -1)
2(1 -1)
2(1 -1)
2(1 -1)
2(1 -1)
2(1 -1)
2(1 -1)
2(1 -1)
2(1 -1)
2(1 -1)
2(1 -1)
2(1 -1)
2(1 -1)
2(1 -1)
2(1 -1)
2(1 -1)
2(1 -1)
2(1 -1)
2(1 -1)
2(1 -1)
2(1 -1)
2(1 -1)
2(1 -1)
2(1 -1)
2(1 -1)
2(1 -1)
2(1 -1)
2(1 -1)
2(1 -1)
2(1 -1)
2(1 -1)
2(1 -1)
2(1 -1)
2(1 -1)
2(1 -1)
2(1 -1)
2(1 -1)
2(1 -1)
2(1 -1)
2(1 -1)
2(1 -1)
2(1 -1)
2(1 -1)
2(1 -1)
2(1 -1)
2(1 -1)
2(1 -1)
2(1 -1)
2(1 -1)
2(1 -1)
2(1 -1)
2(1 -1)
2(1 -1)
2(1 -1)
2(1 -1)
2(1 -1)
2(1 -1)
2(1 -1)
2(1 -1)
)

// edgeNormals

84
(
2(0 1)
2(2 3)
2(4 5)
2(6 7)
2(8 9)
2(10 11)
2(12 13)
2(14 15)
2(16 17)
2(18 19)
2(20 21)
2(22 23)
2(24 25)
2(26 27)
2(28 29)
2(30 31)
2(32 31)
2(33 34)
2(35 36)
2(37 38)
2(39 40)
2(41 42)
2(40 43)
2(44 45)
2(46 47)
2(48 49)
2(50 51)
2(52 53)
2(54 55)
2(56 57)
2(58 59)
2(60 61)
2(62 63)
2(64 65)
2(66 67)
2(68 69)
2(70 71)
2(72 73)
2(74 71)
2(75 76)
2(42 77)
2(78 79)
2(79 80)
2(79 81)
2(82 83)
2(84 85)
2(86 87)
2(88 89)
2(90 91)
2(92 93)
2(94 95)
2(96 97)
2(98 99)
2(100 101)
2(102 101)
2(103 104)
2(105 106)
2(107 108)
2(109 110)
2(111 112)
2(113 114)
2(115 116)
2(117 118)
2(119 120)
2(121 122)
2(123 124)
2(125 126)
2(127 128)
2(129 130)
2(131 132)
2(133 134)
2(135 134)
2(136 137)
2(138 139)
2(140 141)
2(142 143)
2(144 145)
2(146 147)
2(148 149)
2(150 151)
2(152 153)
2(154 155)
2(156 157)
2(158 159)
)

// featurePointNormals

2
(
4(75 76 78 79)
5(42 77 79 80 81)
)

// featurePointEdges

2
(
3(41 43 39)
3(40 42 43)
)

// regionEdges
0()


// ************************************************************************* //
