/*--------------------------------*- C++ -*----------------------------------*\
| =========                 |                                                 |
| \\      /  F ield         | OpenFOAM: The Open Source CFD Toolbox           |
|  \\    /   O peration     | Version:  2012                                  |
|   \\  /    A nd           | Website:  www.openfoam.com                      |
|    \\/     M anipulation  |                                                 |
\*---------------------------------------------------------------------------*/
FoamFile
{
    version     2.0;
    format      ascii;
    class       extendedFeatureEdgeMesh;
    location    "constant/extendedFeatureEdgeMesh";
    object      filler.extendedFeatureEdgeMesh;
}
// * * * * * * * * * * * * * * * * * * * * * * * * * * * * * * * * * * * * * //

// points

5572
(
(0.14994099736213684082 0.004206927027553319931 0.30000001192092895508)
(0.15000000596046447754 -1.8369701134416292711e-17 0.30000001192092895508)
(0.14994099736213684082 -0.004206927027553319931 0.30000001192092895508)
(0.11887088418006896973 0.0036652619019150733948 0.30000001192092895508)
(0.11828662455081939697 0.0041311960667371749878 0.30000001192092895508)
(0.11937917768955230713 0.0031174519099295139313 0.30000001192092895508)
(0.11980015039443969727 0.0025000027380883693695 0.30000001192092895508)
(0.12012439966201782227 0.0018267072737216949463 0.30000001192092895508)
(0.12034466862678527832 0.0011126060271635651588 0.30000001192092895508)
(0.12045604735612869263 0.00037365092430263757706 0.30000001192092895508)
(0.12045604735612869263 -0.00037365092430263757706 0.30000001192092895508)
(0.15000000596046447754 -1.8369701134416292711e-17 1.2999999523162841797)
(0.14994099736213684082 -0.004206927027553319931 1.2999999523162841797)
(0.14976401627063751221 0.0084105869755148887634 0.30000001192092895508)
(0.11621523648500442505 0.0049441540613770484924 0.30000001192092895508)
(0.11547002196311950684 0.0049999998882412910461 0.30000001192092895508)
(0.11694379895925521851 0.0047778650186955928802 0.30000001192092895508)
(0.11763944476842880249 0.0045048459433019161224 0.30000001192092895508)
(0.14994099736213684082 0.004206927027553319931 1.2999999523162841797)
(0.14946922659873962402 0.012607560493052005768 0.30000001192092895508)
(0.086602501571178436279 0.011666500009596347809 0.30000001192092895508)
(0.087347708642482757568 0.011722344905138015747 0.30000001192092895508)
(0.088771909475326538086 0.01216165442019701004 0.30000001192092895508)
(0.089419096708297729492 0.012535303831100463867 0.30000001192092895508)
(0.088076271116733551025 0.011888634413480758667 0.30000001192092895508)
(0.14976401627063751221 0.0084105869755148887634 1.2999999523162841797)
(0.14905682206153869629 0.016794675961136817932 0.30000001192092895508)
(0.09147714078426361084 0.015553894452750682831 0.30000001192092895508)
(0.091588519513607025146 0.016292847692966461182 0.30000001192092895508)
(0.091256864368915557861 0.014839793555438518524 0.30000001192092895508)
(0.090932622551918029785 0.014166497625410556793 0.30000001192092895508)
(0.090511657297611236572 0.013549048453569412231 0.30000001192092895508)
(0.090003356337547302246 0.01300123799592256546 0.30000001192092895508)
(0.14946922659873962402 0.012607560493052005768 1.2999999523162841797)
(0.14852716028690338135 0.020968563854694366455 0.30000001192092895508)
(0.090003356337547302246 0.020331762731075286865 0.30000001192092895508)
(0.089419096708297729492 0.020797695964574813843 0.30000001192092895508)
(0.090511657297611236572 0.019783953204751014709 0.30000001192092895508)
(0.090932622551918029785 0.019166501238942146301 0.30000001192092895508)
(0.091256864368915557861 0.018493207171559333801 0.30000001192092895508)
(0.09147714078426361084 0.017779106274247169495 0.30000001192092895508)
(0.091588519513607025146 0.017040152102708816528 0.30000001192092895508)
(0.14905682206153869629 0.016794675961136817932 1.2999999523162841797)
(0.14788065850734710693 0.025125915184617042542 0.30000001192092895508)
(0.087347708642482757568 0.021610654890537261963 0.30000001192092895508)
(0.086602501571178436279 0.021666500717401504517 0.30000001192092895508)
(0.088076271116733551025 0.021444365382194519043 0.30000001192092895508)
(0.088771909475326538086 0.021171346306800842285 0.30000001192092895508)
(0.14852716028690338135 0.020968563854694366455 1.2999999523162841797)
(0.14711777865886688232 0.029263565316796302795 0.30000001192092895508)
(0.11547002196311950684 0.028333000838756561279 0.30000001192092895508)
(0.11621523648500442505 0.028388844802975654602 0.30000001192092895508)
(0.11763944476842880249 0.02882815338671207428 0.30000001192092895508)
(0.11828662455081939697 0.029201803728938102722 0.30000001192092895508)
(0.11694379895925521851 0.028555136173963546753 0.30000001192092895508)
(0.14788065850734710693 0.025125915184617042542 1.2999999523162841797)
(0.14623919129371643066 0.033378127962350845337 0.30000001192092895508)
(0.12034466862678527832 0.03222039341926574707 0.30000001192092895508)
(0.12045604735612869263 0.032959349453449249268 0.30000001192092895508)
(0.12012439966201782227 0.031506292521953582764 0.30000001192092895508)
(0.11980015039443969727 0.030832998454570770264 0.30000001192092895508)
(0.11937917768955230713 0.030215548351407051086 0.30000001192092895508)
(0.11887088418006896973 0.029667738825082778931 0.30000001192092895508)
(0.14711777865886688232 0.029263565316796302795 1.2999999523162841797)
(0.14524552226066589355 0.037466470152139663696 0.30000001192092895508)
(0.11887088418006896973 0.036998260766267776489 0.30000001192092895508)
(0.11828662455081939697 0.037464193999767303467 0.30000001192092895508)
(0.11937917768955230713 0.036450449377298355103 0.30000001192092895508)
(0.11980015039443969727 0.035833004862070083618 0.30000001192092895508)
(0.12012439966201782227 0.035159707069396972656 0.30000001192092895508)
(0.12034466862678527832 0.03444560617208480835 0.30000001192092895508)
(0.12045604735612869263 0.033706650137901306152 0.30000001192092895508)
(0.14623919129371643066 0.033378127962350845337 1.2999999523162841797)
(0.14413759112358093262 0.041525345295667648315 0.30000001192092895508)
(0.11621523648500442505 0.038277152925729751587 0.30000001192092895508)
(0.11547002196311950684 0.038332998752593994141 0.30000001192092895508)
(0.11694379895925521851 0.038110867142677307129 0.30000001192092895508)
(0.11763944476842880249 0.037837844341993331909 0.30000001192092895508)
(0.14524552226066589355 0.037466470152139663696 1.2999999523162841797)
(0.14291627705097198486 0.045551490038633346558 0.30000001192092895508)
(-0.14413759112358093262 0.041525345295667648315 0.30000001192092895508)
(-0.14291627705097198486 0.045551490038633346558 0.30000001192092895508)
(0.086602501571178436279 0.044999498873949050903 0.30000001192092895508)
(0.087347708642482757568 0.045055348426103591919 0.30000001192092895508)
(0.088076271116733551025 0.045221634209156036377 0.30000001192092895508)
(0.088771909475326538086 0.045494657009840011597 0.30000001192092895508)
(0.14413759112358093262 0.041525345295667648315 1.2999999523162841797)
(0.141582489013671875 0.049541868269443511963 0.30000001192092895508)
(0.091256864368915557861 0.04817279428243637085 0.30000001192092895508)
(0.09147714078426361084 0.048886895179748535156 0.30000001192092895508)
(0.090932622551918029785 0.047499496489763259888 0.30000001192092895508)
(0.090511657297611236572 0.046882048249244689941 0.30000001192092895508)
(0.090003356337547302246 0.046334236860275268555 0.30000001192092895508)
(0.089419096708297729492 0.045868303626775741577 0.30000001192092895508)
(0.14291627705097198486 0.045551490038633346558 1.2999999523162841797)
(0.1401373445987701416 0.053493231534957885742 0.30000001192092895508)
(0.090932622551918029785 0.052499502897262573242 0.30000001192092895508)
(0.090511657297611236572 0.053116951137781143188 0.30000001192092895508)
(0.091256864368915557861 0.05182620510458946228 0.30000001192092895508)
(0.09147714078426361084 0.051112107932567596436 0.30000001192092895508)
(0.091588519513607025146 0.050373148173093795776 0.30000001192092895508)
(0.091588519513607025146 0.049625851213932037354 0.30000001192092895508)
(0.141582489013671875 0.049541868269443511963 1.2999999523162841797)
(0.13858194649219512939 0.057402502745389938354 0.30000001192092895508)
(0.087347708642482757568 0.054943654686212539673 0.30000001192092895508)
(0.086602501571178436279 0.054999500513076782227 0.30000001192092895508)
(0.088076271116733551025 0.054777365177869796753 0.30000001192092895508)
(0.088771909475326538086 0.054504346102476119995 0.30000001192092895508)
(0.089419096708297729492 0.054130695760250091553 0.30000001192092895508)
(0.090003356337547302246 0.053664758801460266113 0.30000001192092895508)
(0.1401373445987701416 0.053493231534957885742 1.2999999523162841797)
(0.13691748678684234619 0.061266653239727020264 0.30000001192092895508)
(-0.13858194649219512939 0.057402502745389938354 0.30000001192092895508)
(-0.13691748678684234619 0.061266653239727020264 0.30000001192092895508)
(0.13858194649219512939 0.057402502745389938354 1.2999999523162841797)
(0.13514533638954162598 0.065082542598247528076 0.30000001192092895508)
(0.11547002196311950684 0.061666000634431838989 0.30000001192092895508)
(0.11621523648500442505 0.061721842736005783081 0.30000001192092895508)
(0.11980015039443969727 0.064166001975536346436 0.30000001192092895508)
(0.12012439966201782227 0.064839296042919158936 0.30000001192092895508)
(0.11937917768955230713 0.063548550009727478027 0.30000001192092895508)
(0.11887088418006896973 0.063000738620758056641 0.30000001192092895508)
(0.11828662455081939697 0.062534801661968231201 0.30000001192092895508)
(0.11763944476842880249 0.062161155045032501221 0.30000001192092895508)
(0.11694379895925521851 0.061888132244348526001 0.30000001192092895508)
(0.13691748678684234619 0.061266653239727020264 1.2999999523162841797)
(0.13326685130596160889 0.068847283720970153809 0.30000001192092895508)
(0.12034466862678527832 0.067778602242469787598 0.30000001192092895508)
(0.12012439966201782227 0.068492703139781951904 0.30000001192092895508)
(0.12045604735612869263 0.067039653658866882324 0.30000001192092895508)
(0.12045604735612869263 0.066292352974414825439 0.30000001192092895508)
(0.12034466862678527832 0.065553389489650726318 0.30000001192092895508)
(0.13514533638954162598 0.065082542598247528076 1.2999999523162841797)
(0.13128350675106048584 0.072557844221591949463 0.30000001192092895508)
(0.11694379895925521851 0.071443863213062286377 0.30000001192092895508)
(0.11621523648500442505 0.071610152721405029297 0.30000001192092895508)
(0.11763944476842880249 0.071170844137668609619 0.30000001192092895508)
(0.11828662455081939697 0.070797197520732879639 0.30000001192092895508)
(0.11887088418006896973 0.070331260561943054199 0.30000001192092895508)
(0.11937917768955230713 0.069783456623554229736 0.30000001192092895508)
(0.11980015039443969727 0.069165997207164764404 0.30000001192092895508)
(0.13326685130596160889 0.068847283720970153809 1.2999999523162841797)
(0.12919689714908599854 0.076211288571357727051 0.30000001192092895508)
(-0.13128350675106048584 0.072557844221591949463 0.30000001192092895508)
(-0.12919689714908599854 0.076211288571357727051 0.30000001192092895508)
(0.11547002196311950684 0.071666002273559570312 0.30000001192092895508)
(0.13128350675106048584 0.072557844221591949463 1.2999999523162841797)
(0.12700861692428588867 0.079804822802543640137 0.30000001192092895508)
(0.086602501571178436279 0.078332498669624328613 0.30000001192092895508)
(0.087347708642482757568 0.078388340771198272705 0.30000001192092895508)
(0.089419096708297729492 0.079201303422451019287 0.30000001192092895508)
(0.090003356337547302246 0.079667232930660247803 0.30000001192092895508)
(0.088771909475326538086 0.078827649354934692383 0.30000001192092895508)
(0.088076271116733551025 0.078554637730121612549 0.30000001192092895508)
(0.12919689714908599854 0.076211288571357727051 1.2999999523162841797)
(0.12472045421600341797 0.08333552628755569458 0.30000001192092895508)
(0.09147714078426361084 0.082219891250133514404 0.30000001192092895508)
(0.091588519513607025146 0.082958847284317016602 0.30000001192092895508)
(0.091256864368915557861 0.081505790352821350098 0.30000001192092895508)
(0.090932622551918029785 0.080832496285438537598 0.30000001192092895508)
(0.090511657297611236572 0.080215051770210266113 0.30000001192092895508)
(0.12700861692428588867 0.079804822802543640137 1.2999999523162841797)
(0.12233413010835647583 0.086800687015056610107 0.30000001192092895508)
(0.090932622551918029785 0.085832506418228149414 0.30000001192092895508)
(0.090511657297611236572 0.086449950933456420898 0.30000001192092895508)
(0.091256864368915557861 0.085159212350845336914 0.30000001192092895508)
(0.09147714078426361084 0.084445104002952575684 0.30000001192092895508)
(0.091588519513607025146 0.08370615541934967041 0.30000001192092895508)
(0.12472045421600341797 0.08333552628755569458 1.2999999523162841797)
(0.11985155940055847168 0.090197578072547912598 0.30000001192092895508)
(0.087347708642482757568 0.088276654481887817383 0.30000001192092895508)
(0.086602501571178436279 0.088332496583461761475 0.30000001192092895508)
(0.088076271116733551025 0.088110364973545074463 0.30000001192092895508)
(0.088771909475326538086 0.087837345898151397705 0.30000001192092895508)
(0.089419096708297729492 0.087463699281215667725 0.30000001192092895508)
(0.090003356337547302246 0.086997762322425842285 0.30000001192092895508)
(0.12233413010835647583 0.086800687015056610107 1.2999999523162841797)
(0.11727473139762878418 0.093523450195789337158 0.30000001192092895508)
(-0.11985155940055847168 0.090197578072547912598 0.30000001192092895508)
(-0.11727473139762878418 0.093523450195789337158 0.30000001192092895508)
(0.11985155940055847168 0.090197578072547912598 1.2999999523162841797)
(0.11460559815168380737 0.096775799989700317383 0.30000001192092895508)
(0.057735025882720947266 0.094999000430107116699 0.30000001192092895508)
(0.058480236679315567017 0.095054849982261657715 0.30000001192092895508)
(0.06055162474513053894 0.095867805182933807373 0.30000001192092895508)
(0.061135888099670410156 0.096333742141723632812 0.30000001192092895508)
(0.059904441237449645996 0.095494158565998077393 0.30000001192092895508)
(0.059208802878856658936 0.095221139490604400635 0.30000001192092895508)
(0.11727473139762878418 0.093523450195789337158 1.2999999523162841797)
(0.11184632033109664917 0.099951989948749542236 0.30000001192092895508)
(0.062609665095806121826 0.09888639301061630249 0.30000001192092895508)
(0.062721043825149536133 0.099625349044799804688 0.30000001192092895508)
(0.06238939240574836731 0.098172292113304138184 0.30000001192092895508)
(0.062065150588750839233 0.097498998045921325684 0.30000001192092895508)
(0.061644181609153747559 0.096881546080112457275 0.30000001192092895508)
(0.11460559815168380737 0.096775799989700317383 1.2999999523162841797)
(0.10899905115365982056 0.10304953157901763916 0.30000001192092895508)
(0.06238939240574836731 0.10182570666074752808 0.30000001192092895508)
(0.062065150588750839233 0.10249900072813034058 0.30000001192092895508)
(0.062609665095806121826 0.10111160576343536377 0.30000001192092895508)
(0.062721043825149536133 0.10037264972925186157 0.30000001192092895508)
(0.11184632033109664917 0.099951989948749542236 1.2999999523162841797)
(0.10606600344181060791 0.10606603324413299561 0.30000001192092895508)
(0.058480236679315567017 0.10494315624237060547 0.30000001192092895508)
(0.057735025882720947266 0.10499899834394454956 0.30000001192092895508)
(0.059208802878856658936 0.10477686673402786255 0.30000001192092895508)
(0.059904441237449645996 0.10450384765863418579 0.30000001192092895508)
(0.06055162474513053894 0.10413019359111785889 0.30000001192092895508)
(0.061135888099670410156 0.10366426408290863037 0.30000001192092895508)
(0.061644181609153747559 0.10311645269393920898 0.30000001192092895508)
(0.10899905115365982056 0.10304953157901763916 1.2999999523162841797)
(0.10304955393075942993 0.10899903625249862671 0.30000001192092895508)
(-0.10606600344181060791 0.10606603324413299561 0.30000001192092895508)
(-0.10304955393075942993 0.10899903625249862671 0.30000001192092895508)
(0.10606600344181060791 0.10606603324413299561 1.2999999523162841797)
(0.099951989948749542236 0.11184632778167724609 0.30000001192092895508)
(-0.099951989948749542236 0.11184632778167724609 0.30000001192092895508)
(0.028867775574326515198 0.11166549474000930786 0.30000001192092895508)
(0.029612986370921134949 0.11172134429216384888 0.30000001192092895508)
(0.10304955393075942993 0.10899903625249862671 1.2999999523162841797)
(0.096775785088539123535 0.11460561305284500122 0.30000001192092895508)
(0.032776933163404464722 0.11354804784059524536 0.30000001192092895508)
(0.033197898417711257935 0.11416549980640411377 0.30000001192092895508)
(0.032268635928630828857 0.11300023645162582397 0.30000001192092895508)
(0.031684372574090957642 0.11253429949283599854 0.30000001192092895508)
(0.031037190929055213928 0.11216065287590026855 0.30000001192092895508)
(0.030341548845171928406 0.1118876338005065918 0.30000001192092895508)
(0.099951989948749542236 0.11184632778167724609 1.2999999523162841797)
(0.093523479998111724854 0.11727470904588699341 0.30000001192092895508)
(0.033853795379400253296 0.11629185080528259277 0.30000001192092895508)
(0.033853795379400253296 0.11703915148973464966 0.30000001192092895508)
(0.033742412924766540527 0.11555289477109909058 0.30000001192092895508)
(0.033522143959999084473 0.11483879387378692627 0.30000001192092895508)
(0.096775785088539123535 0.11460561305284500122 1.2999999523162841797)
(0.090197548270225524902 0.11985158175230026245 0.30000001192092895508)
(0.033197898417711257935 0.11916550248861312866 0.30000001192092895508)
(0.032776933163404464722 0.11978295445442199707 0.30000001192092895508)
(0.033522143959999084473 0.11849220842123031616 0.30000001192092895508)
(0.033742412924766540527 0.11777810752391815186 0.30000001192092895508)
(0.093523479998111724854 0.11727470904588699341 1.2999999523162841797)
(0.086800701916217803955 0.12233412265777587891 0.30000001192092895508)
(0.029612986370921134949 0.12160965800285339355 0.30000001192092895508)
(0.028867775574326515198 0.12166550010442733765 0.30000001192092895508)
(0.030341548845171928406 0.12144336849451065063 0.30000001192092895508)
(0.031037190929055213928 0.12117034941911697388 0.30000001192092895508)
(0.031684372574090957642 0.1207967028021812439 0.30000001192092895508)
(0.032268635928630828857 0.12033076584339141846 0.30000001192092895508)
(0.090197548270225524902 0.11985158175230026245 1.2999999523162841797)
(0.083335541188716888428 0.12472043931484222412 0.30000001192092895508)
(-0.086800701916217803955 0.12233412265777587891 0.30000001192092895508)
(-0.083335541188716888428 0.12472043931484222412 0.30000001192092895508)
(0.086800701916217803955 0.12233412265777587891 1.2999999523162841797)
(0.079804793000221252441 0.12700863182544708252 0.30000001192092895508)
(-0.079804793000221252441 0.12700863182544708252 0.30000001192092895508)
(0.083335541188716888428 0.12472043931484222412 1.2999999523162841797)
(0.076211318373680114746 0.12919688224792480469 0.30000001192092895508)
(-0.076211318373680114746 0.12919688224792480469 0.30000001192092895508)
(0.0018267072737216949463 0.12867762148380279541 0.30000001192092895508)
(0.0025000027380883693695 0.12900187075138092041 0.30000001192092895508)
(0.0011126060271635651588 0.1284573674201965332 0.30000001192092895508)
(0.00037365092430263757706 0.12834598124027252197 0.30000001192092895508)
(-0.00037365092430263757706 0.12834598124027252197 0.30000001192092895508)
(0.079804793000221252441 0.12700863182544708252 1.2999999523162841797)
(0.072557821869850158691 0.13128352165222167969 0.30000001192092895508)
(0.0041311960667371749878 0.1305153965950012207 0.30000001192092895508)
(0.0045048459433019161224 0.13116258382797241211 0.30000001192092895508)
(0.0036652619019150733948 0.12993113696575164795 0.30000001192092895508)
(0.0031174519099295139313 0.12942285835742950439 0.30000001192092895508)
(0.076211318373680114746 0.12919688224792480469 1.2999999523162841797)
(0.068847276270389556885 0.13326685130596160889 0.30000001192092895508)
(0.0047778650186955928802 0.13185822963714599609 0.30000001192092895508)
(0.0049441540613770484924 0.13258679211139678955 0.30000001192092895508)
(0.072557821869850158691 0.13128352165222167969 1.2999999523162841797)
(0.065082572400569915771 0.13514532148838043213 0.30000001192092895508)
(0.0049999998882412910461 0.13333199918270111084 0.30000001192092895508)
(0.0049441540613770484924 0.13407720625400543213 0.30000001192092895508)
(0.0047778650186955928802 0.13480576872825622559 0.30000001192092895508)
(0.068847276270389556885 0.13326685130596160889 1.2999999523162841797)
(0.061266619712114334106 0.13691750168800354004 0.30000001192092895508)
(0.0041311960667371749878 0.13614858686923980713 0.30000001192092895508)
(0.0036652619019150733948 0.13673286139965057373 0.30000001192092895508)
(0.0045048459433019161224 0.13550141453742980957 0.30000001192092895508)
(0.065082572400569915771 0.13514532148838043213 1.2999999523162841797)
(0.057402528822422027588 0.13858193159103393555 0.30000001192092895508)
(0.0011126060271635651588 0.13820663094520568848 0.30000001192092895508)
(0.00037365092430263757706 0.13831801712512969971 0.30000001192092895508)
(0.0018267072737216949463 0.13798637688159942627 0.30000001192092895508)
(0.0025000027380883693695 0.13766212761402130127 0.30000001192092895508)
(0.0031174519099295139313 0.13724115490913391113 0.30000001192092895508)
(0.061266619712114334106 0.13691750168800354004 1.2999999523162841797)
(0.05349322780966758728 0.1401373445987701416 0.30000001192092895508)
(-0.057402528822422027588 0.13858193159103393555 0.30000001192092895508)
(-0.05349322780966758728 0.1401373445987701416 0.30000001192092895508)
(0.057402528822422027588 0.13858193159103393555 1.2999999523162841797)
(0.049541842192411422729 0.14158250391483306885 0.30000001192092895508)
(-0.049541842192411422729 0.14158250391483306885 0.30000001192092895508)
(0.05349322780966758728 0.1401373445987701416 1.2999999523162841797)
(0.045551527291536331177 0.14291626214981079102 0.30000001192092895508)
(-0.045551527291536331177 0.14291626214981079102 0.30000001192092895508)
(0.049541842192411422729 0.14158250391483306885 1.2999999523162841797)
(0.041525311768054962158 0.14413760602474212646 0.30000001192092895508)
(-0.041525311768054962158 0.14413760602474212646 0.30000001192092895508)
(0.045551527291536331177 0.14291626214981079102 1.2999999523162841797)
(0.037466481328010559082 0.14524552226066589355 0.30000001192092895508)
(-0.037466481328010559082 0.14524552226066589355 0.30000001192092895508)
(0.041525311768054962158 0.14413760602474212646 1.2999999523162841797)
(0.033378146588802337646 0.14623917639255523682 0.30000001192092895508)
(-0.033378146588802337646 0.14623917639255523682 0.30000001192092895508)
(0.037466481328010559082 0.14524552226066589355 1.2999999523162841797)
(0.029263528063893318176 0.14711779356002807617 0.30000001192092895508)
(-0.029263528063893318176 0.14711779356002807617 0.30000001192092895508)
(0.033378146588802337646 0.14623917639255523682 1.2999999523162841797)
(0.025125954300165176392 0.14788064360618591309 0.30000001192092895508)
(-0.025125954300165176392 0.14788064360618591309 0.30000001192092895508)
(0.029263528063893318176 0.14711779356002807617 1.2999999523162841797)
(0.020968541502952575684 0.1485271751880645752 0.30000001192092895508)
(-0.020968541502952575684 0.1485271751880645752 0.30000001192092895508)
(0.025125954300165176392 0.14788064360618591309 1.2999999523162841797)
(0.016794664785265922546 0.14905683696269989014 0.30000001192092895508)
(-0.016794664785265922546 0.14905683696269989014 0.30000001192092895508)
(0.020968541502952575684 0.1485271751880645752 1.2999999523162841797)
(0.012607592158019542694 0.14946922659873962402 0.30000001192092895508)
(-0.012607592158019542694 0.14946922659873962402 0.30000001192092895508)
(0.016794664785265922546 0.14905683696269989014 1.2999999523162841797)
(0.0084105478599667549133 0.14976401627063751221 0.30000001192092895508)
(-0.0084105478599667549133 0.14976401627063751221 0.30000001192092895508)
(0.012607592158019542694 0.14946922659873962402 1.2999999523162841797)
(0.0042069549672305583954 0.14994099736213684082 0.30000001192092895508)
(-0.0042069549672305583954 0.14994099736213684082 0.30000001192092895508)
(0.0084105478599667549133 0.14976401627063751221 1.2999999523162841797)
(2.575717343014980289e-17 0.15000000596046447754 0.30000001192092895508)
(0.0042069549672305583954 0.14994099736213684082 1.2999999523162841797)
(2.575717343014980289e-17 0.15000000596046447754 1.2999999523162841797)
(-0.0042069549672305583954 0.14994099736213684082 1.2999999523162841797)
(-0.0084105478599667549133 0.14976401627063751221 1.2999999523162841797)
(-0.012607592158019542694 0.14946922659873962402 1.2999999523162841797)
(-0.016794664785265922546 0.14905683696269989014 1.2999999523162841797)
(-0.020968541502952575684 0.1485271751880645752 1.2999999523162841797)
(-0.025125954300165176392 0.14788064360618591309 1.2999999523162841797)
(-0.029263528063893318176 0.14711779356002807617 1.2999999523162841797)
(-0.033378146588802337646 0.14623917639255523682 1.2999999523162841797)
(-0.037466481328010559082 0.14524552226066589355 1.2999999523162841797)
(-0.041525311768054962158 0.14413760602474212646 1.2999999523162841797)
(-0.045551527291536331177 0.14291626214981079102 1.2999999523162841797)
(-0.049541842192411422729 0.14158250391483306885 1.2999999523162841797)
(-0.05349322780966758728 0.1401373445987701416 1.2999999523162841797)
(-0.061266619712114334106 0.13691750168800354004 0.30000001192092895508)
(-0.0025000027380883693695 0.13766212761402130127 0.30000001192092895508)
(-0.0031174519099295139313 0.13724115490913391113 0.30000001192092895508)
(-0.0018267072737216949463 0.13798637688159942627 0.30000001192092895508)
(-0.0011126060271635651588 0.13820663094520568848 0.30000001192092895508)
(-0.00037365092430263757706 0.13831801712512969971 0.30000001192092895508)
(-0.057402528822422027588 0.13858193159103393555 1.2999999523162841797)
(-0.065082572400569915771 0.13514532148838043213 0.30000001192092895508)
(-0.0041311960667371749878 0.13614858686923980713 0.30000001192092895508)
(-0.0045048459433019161224 0.13550141453742980957 0.30000001192092895508)
(-0.0036652619019150733948 0.13673286139965057373 0.30000001192092895508)
(-0.061266619712114334106 0.13691750168800354004 1.2999999523162841797)
(-0.068847276270389556885 0.13326685130596160889 0.30000001192092895508)
(-0.0049441540613770484924 0.13407720625400543213 0.30000001192092895508)
(-0.0049999998882412910461 0.13333199918270111084 0.30000001192092895508)
(-0.0047778650186955928802 0.13480576872825622559 0.30000001192092895508)
(-0.065082572400569915771 0.13514532148838043213 1.2999999523162841797)
(-0.072557821869850158691 0.13128352165222167969 0.30000001192092895508)
(-0.0049441540613770484924 0.13258679211139678955 0.30000001192092895508)
(-0.0047778650186955928802 0.13185822963714599609 0.30000001192092895508)
(-0.068847276270389556885 0.13326685130596160889 1.2999999523162841797)
(-0.0036652619019150733948 0.12993113696575164795 0.30000001192092895508)
(-0.0031174519099295139313 0.12942285835742950439 0.30000001192092895508)
(-0.0041311960667371749878 0.1305153965950012207 0.30000001192092895508)
(-0.0045048459433019161224 0.13116258382797241211 0.30000001192092895508)
(-0.072557821869850158691 0.13128352165222167969 1.2999999523162841797)
(-0.0011126060271635651588 0.1284573674201965332 0.30000001192092895508)
(-0.0018267072737216949463 0.12867762148380279541 0.30000001192092895508)
(-0.0025000027380883693695 0.12900187075138092041 0.30000001192092895508)
(-0.076211318373680114746 0.12919688224792480469 1.2999999523162841797)
(-0.079804793000221252441 0.12700863182544708252 1.2999999523162841797)
(-0.083335541188716888428 0.12472043931484222412 1.2999999523162841797)
(-0.090197548270225524902 0.11985158175230026245 0.30000001192092895508)
(-0.028867226094007492065 0.12166550010442733765 0.30000001192092895508)
(-0.029612435027956962585 0.12160965800285339355 0.30000001192092895508)
(-0.031683821231126785278 0.1207967028021812439 0.30000001192092895508)
(-0.032268084585666656494 0.12033076584339141846 0.30000001192092895508)
(-0.031036639586091041565 0.12117034941911697388 0.30000001192092895508)
(-0.030340997502207756042 0.12144336849451065063 0.30000001192092895508)
(-0.086800701916217803955 0.12233412265777587891 1.2999999523162841797)
(-0.093523479998111724854 0.11727470904588699341 0.30000001192092895508)
(-0.033521592617034912109 0.11849220842123031616 0.30000001192092895508)
(-0.033741861581802368164 0.11777810752391815186 0.30000001192092895508)
(-0.033197350800037384033 0.11916550248861312866 0.30000001192092895508)
(-0.032776378095149993896 0.11978295445442199707 0.30000001192092895508)
(-0.090197548270225524902 0.11985158175230026245 1.2999999523162841797)
(-0.096775785088539123535 0.11460561305284500122 0.30000001192092895508)
(-0.033741861581802368164 0.11555289477109909058 0.30000001192092895508)
(-0.033521592617034912109 0.11483879387378692627 0.30000001192092895508)
(-0.033853244036436080933 0.11629185080528259277 0.30000001192092895508)
(-0.033853244036436080933 0.11703915148973464966 0.30000001192092895508)
(-0.093523479998111724854 0.11727470904588699341 1.2999999523162841797)
(-0.031036639586091041565 0.11216065287590026855 0.30000001192092895508)
(-0.030340997502207756042 0.1118876338005065918 0.30000001192092895508)
(-0.031683821231126785278 0.11253429949283599854 0.30000001192092895508)
(-0.032268084585666656494 0.11300023645162582397 0.30000001192092895508)
(-0.032776378095149993896 0.11354804784059524536 0.30000001192092895508)