/*--------------------------------*- C++ -*----------------------------------*\
| =========                 |                                                 |
| \\      /  F ield         | OpenFOAM: The Open Source CFD Toolbox           |
|  \\    /   O peration     | Version:  2012                                  |
|   \\  /    A nd           | Website:  www.openfoam.com                      |
|    \\/     M anipulation  |                                                 |
\*---------------------------------------------------------------------------*/
FoamFile
{
    version     2.0;
    format      ascii;
    class       extendedFeatureEdgeMesh;
    location    "constant/extendedFeatureEdgeMesh";
    object      filler.extendedFeatureEdgeMesh;
}
// * * * * * * * * * * * * * * * * * * * * * * * * * * * * * * * * * * * * * //

// points

496
(
(0.016648679971694946289 0.00073731679003685712814 0)
(0.016665000468492507935 -2.0408737740306458262e-18 0)
(0.016648679971694946289 -0.00073731679003685712814 0)
(0.0049999998882412910461 -6.1232339527331095648e-19 0)
(0.0049912184476852416992 0.00029620286659337580204 0)
(0.004964905325323343277 0.00059136678464710712433 0)
(0.016665000468492507935 -2.0408737740306458262e-18 1)
(0.016648679971694946289 -0.00073731679003685712814 1)
(0.016599783673882484436 0.0014728337991982698441 0)
(0.0048601143062114715576 0.0011744318762794137001 0)
(0.0047820047475397586823 0.001460282597690820694 0)
(0.0049211527220904827118 0.00088445062283426523209 0)
(0.016648679971694946289 0.00073731679003685712814 1)
(0.016518397256731987 0.0022056186571717262268 0)
(0.0046870973892509937286 0.0017410105792805552483 0)
(0.0045757284387946128845 0.0020156153477728366852 0)
(0.016599783673882484436 0.0014728337991982698441 1)
(0.016404647380113601685 0.00293423444963991642 0)
(0.0043052188120782375336 0.0025426535867154598236 0)
(0.0041470266878604888916 0.0027932366356253623962 0)
(0.0044482839293777942657 0.0022831489332020282745 0)
(0.016518397256731987 0.0022056186571717262268 1)
(0.016258800402283668518 0.0036569698713719844818 0)
(0.0037875536363571882248 0.0032641135621815919876 0)
(0.0035875381436198949814 0.0034827527124434709549 0)
(0.0039742738008499145508 0.0030339984223246574402 0)
(0.016404647380113601685 0.00293423444963991642 1)
(0.016081150621175765991 0.0043724933639168739319 0)
(0.0029148936737328767776 0.0040624369867146015167 0)
(0.0026691197417676448822 0.0042279777117073535919 0)
(0.003150441683828830719 0.0038826169911772012711 0)
(0.0033749118447303771973 0.003689169418066740036 0)
(0.016258800402283668518 0.0036569698713719844818 1)
(0.015871992334723472595 0.0050795720890164375305 0)
(0.00044398423051461577415 0.0049802483990788459778 0)
(0.00014816169277764856815 0.0049978042952716350555 0)
(0.00073822785634547472 0.004945201333612203598 0)
(0.0010298975976184010506 0.004892781376838684082 0)
(0.0013179309898987412453 0.0048231794498860836029 0)
(0.0016013534041121602058 0.0047366297803819179535 0)
(0.001879133167676627636 0.004633449949324131012 0)
(0.0021503295283764600754 0.0045139868743717670441 0)
(0.0024139566812664270401 0.0043786768801510334015 0)
(0.016081150621175765991 0.0043724933639168739319 1)
(0.015631740912795066833 0.0057767434045672416687 0)
(-0.015871992334723472595 0.0050795720890164375305 0)
(-0.015631740912795066833 0.0057767434045672416687 0)
(0.015871992334723472595 0.0050795720890164375305 1)
(0.015360943041741847992 0.0064624664373695850372 0)
(-0.015360943041741847992 0.0064624664373695850372 0)
(0.015631740912795066833 0.0057767434045672416687 1)
(0.015060076490044593811 0.0071355630643665790558 0)
(-0.015060076490044593811 0.0071355630643665790558 0)
(0.015360943041741847992 0.0064624664373695850372 1)
(0.014729657210409641266 0.0077948323450982570648 0)
(-0.014729657210409641266 0.0077948323450982570648 0)
(0.015060076490044593811 0.0071355630643665790558 1)
(0.014370448887348175049 0.0084387343376874923706 0)
(-0.014370448887348175049 0.0084387343376874923706 0)
(0.014729657210409641266 0.0077948323450982570648 1)
(0.013983156532049179077 0.0090660583227872848511 0)
(-0.013983156532049179077 0.0090660583227872848511 0)
(0.014370448887348175049 0.0084387343376874923706 1)
(0.013568442314863204956 0.0096757225692272186279 0)
(-0.013568442314863204956 0.0096757225692272186279 0)
(0.013983156532049179077 0.0090660583227872848511 1)
(0.01312711276113986969 0.010266500525176525116 0)
(-0.01312711276113986969 0.010266500525176525116 0)
(0.013568442314863204956 0.0096757225692272186279 1)
(0.01266018301248550415 0.010837056674063205719 0)
(-0.01266018301248550415 0.010837056674063205719 0)
(0.01312711276113986969 0.010266500525176525116 1)
(0.012168475426733493805 0.011386410333216190338 0)
(-0.012168475426733493805 0.011386410333216190338 0)
(0.01266018301248550415 0.010837056674063205719 1)
(0.011652836576104164124 0.011913589201867580414 0)
(-0.011652836576104164124 0.011913589201867580414 0)
(0.012168475426733493805 0.011386410333216190338 1)
(0.011114444583654403687 0.012417374178767204285 0)
(-0.011114444583654403687 0.012417374178767204285 0)
(0.011652836576104164124 0.011913589201867580414 1)
(0.010554368607699871063 0.012896796688437461853 0)
(-0.010554368607699871063 0.012896796688437461853 0)
(0.011114444583654403687 0.012417374178767204285 1)
(0.0099735744297504425049 0.013351030647754669189 0)
(-0.0099735744297504425049 0.013351030647754669189 0)
(0.010554368607699871063 0.012896796688437461853 1)
(0.0093731638044118881226 0.013779185712337493896 0)
(-0.0093731638044118881226 0.013779185712337493896 0)
(0.0099735744297504425049 0.013351030647754669189 1)
(0.0087545365095138549805 0.014180272817611694336 0)
(-0.0087545365095138549805 0.014180272817611694336 0)
(0.0093731638044118881226 0.013779185712337493896 1)
(0.0081187877804040908813 0.014553604647517204285 0)
(-0.0081187877804040908813 0.014553604647517204285 0)
(0.0087545365095138549805 0.014180272817611694336 1)
(0.0074670114554464817047 0.014898522756993770599 0)
(-0.0074670114554464817047 0.014898522756993770599 0)
(0.0081187877804040908813 0.014553604647517204285 1)
(0.0068006659857928752899 0.015214237384498119354 0)
(-0.0068006659857928752899 0.015214237384498119354 0)
(0.0074670114554464817047 0.014898522756993770599 1)
(0.0061211097054183483124 0.015500131994485855103 0)
(-0.0061211097054183483124 0.015500131994485855103 0)
(0.0068006659857928752899 0.015214237384498119354 1)
(0.0054295137524604797363 0.015755714848637580872 0)
(-0.0054295137524604797363 0.015755714848637580872 0)
(0.0061211097054183483124 0.015500131994485855103 1)
(0.0047271652147173881531 0.015980491414666175842 0)
(-0.0047271652147173881531 0.015980491414666175842 0)
(0.0054295137524604797363 0.015755714848637580872 1)
(0.0040157097391784191132 0.016173932701349258423 0)
(-0.0040157097391784191132 0.016173932701349258423 0)
(0.0047271652147173881531 0.015980491414666175842 1)
(0.0032964262645691633224 0.016335718333721160889 0)
(-0.0032964262645691633224 0.016335718333721160889 0)
(0.0040157097391784191132 0.016173932701349258423 1)
(0.0025705497246235609055 0.016465555876493453979 0)
(-0.0025705497246235609055 0.016465555876493453979 0)
(0.0032964262645691633224 0.016335718333721160889 1)
(0.0018396606901660561562 0.016563145443797111511 0)
(-0.0018396606901660561562 0.016563145443797111511 0)
(0.0025705497246235609055 0.016465555876493453979 1)
(0.0011052963091060519218 0.016628298908472061157 0)
(-0.0011052963091060519218 0.016628298908472061157 0)
(0.0018396606901660561562 0.016563145443797111511 1)
(0.00036872096825391054153 0.016660919412970542908 0)
(-0.00036872096825391054153 0.016660919412970542908 0)
(0.0011052963091060519218 0.016628298908472061157 1)
(0.00036872096825391054153 0.016660919412970542908 1)
(-0.00036872096825391054153 0.016660919412970542908 1)
(-0.0011052963091060519218 0.016628298908472061157 1)
(-0.0018396606901660561562 0.016563145443797111511 1)
(-0.0025705497246235609055 0.016465555876493453979 1)
(-0.0032964262645691633224 0.016335718333721160889 1)
(-0.0040157097391784191132 0.016173932701349258423 1)
(-0.0047271652147173881531 0.015980491414666175842 1)
(-0.0054295137524604797363 0.015755714848637580872 1)
(-0.0061211097054183483124 0.015500131994485855103 1)
(-0.0068006659857928752899 0.015214237384498119354 1)
(-0.0074670114554464817047 0.014898522756993770599 1)
(-0.0081187877804040908813 0.014553604647517204285 1)
(-0.0087545365095138549805 0.014180272817611694336 1)
(-0.0093731638044118881226 0.013779185712337493896 1)
(-0.0099735744297504425049 0.013351030647754669189 1)
(-0.010554368607699871063 0.012896796688437461853 1)
(-0.011114444583654403687 0.012417374178767204285 1)
(-0.011652836576104164124 0.011913589201867580414 1)
(-0.012168475426733493805 0.011386410333216190338 1)
(-0.01266018301248550415 0.010837056674063205719 1)
(-0.01312711276113986969 0.010266500525176525116 1)
(-0.013568442314863204956 0.0096757225692272186279 1)
(-0.013983156532049179077 0.0090660583227872848511 1)
(-0.014370448887348175049 0.0084387343376874923706 1)
(-0.014729657210409641266 0.0077948323450982570648 1)
(-0.015060076490044593811 0.0071355630643665790558 1)
(-0.015360943041741847992 0.0064624664373695850372 1)
(-0.015631740912795066833 0.0057767434045672416687 1)
(-0.016081150621175765991 0.0043724933639168739319 0)
(-0.0021503295283764600754 0.0045139868743717670441 0)
(-0.0024139566812664270401 0.0043786768801510334015 0)
(-0.001879133167676627636 0.004633449949324131012 0)
(-0.0016013534041121602058 0.0047366297803819179535 0)
(-0.0013179309898987412453 0.0048231794498860836029 0)
(-0.0010298975976184010506 0.004892781376838684082 0)
(-0.00073822785634547472 0.004945201333612203598 0)
(-0.00044398423051461577415 0.0049802483990788459778 0)
(-0.00014816169277764856815 0.0049978042952716350555 0)
(-0.015871992334723472595 0.0050795720890164375305 1)
(-0.016258800402283668518 0.0036569698713719844818 0)
(-0.003150441683828830719 0.0038826169911772012711 0)
(-0.0033749118447303771973 0.003689169418066740036 0)
(-0.0029148936737328767776 0.0040624369867146015167 0)
(-0.0026691197417676448822 0.0042279777117073535919 0)
(-0.016081150621175765991 0.0043724933639168739319 1)
(-0.016404647380113601685 0.00293423444963991642 0)
(-0.0037875536363571882248 0.0032641135621815919876 0)
(-0.0039742738008499145508 0.0030339984223246574402 0)
(-0.0035875381436198949814 0.0034827527124434709549 0)
(-0.016258800402283668518 0.0036569698713719844818 1)
(-0.016518397256731987 0.0022056186571717262268 0)
(-0.0043052188120782375336 0.0025426535867154598236 0)
(-0.0044482839293777942657 0.0022831489332020282745 0)
(-0.0041470266878604888916 0.0027932366356253623962 0)
(-0.016404647380113601685 0.00293423444963991642 1)
(-0.016599783673882484436 0.0014728337991982698441 0)
(-0.0045757284387946128845 0.0020156153477728366852 0)
(-0.0046870973892509937286 0.0017410105792805552483 0)
(-0.016518397256731987 0.0022056186571717262268 1)
(-0.016648679971694946289 0.00073731679003685712814 0)
(-0.0048601143062114715576 0.0011744318762794137001 0)
(-0.0049211527220904827118 0.00088445062283426523209 0)
(-0.0047820047475397586823 0.001460282597690820694 0)
(-0.016599783673882484436 0.0014728337991982698441 1)
(-0.016665000468492507935 2.0408737740306458262e-18 0)
(-0.0049912184476852416992 0.00029620286659337580204 0)
(-0.0049999998882412910461 6.1232339527331095648e-19 0)
(-0.004964905325323343277 0.00059136678464710712433 0)
(-0.016648679971694946289 0.00073731679003685712814 1)
(-0.016648679971694946289 -0.00073731679003685712814 0)
(-0.0049912184476852416992 -0.00029620286659337580204 0)
(-0.004964905325323343277 -0.00059136678464710712433 0)
(-0.016665000468492507935 2.0408737740306458262e-18 1)
(-0.016599783673882484436 -0.0014728337991982698441 0)
(-0.0048601143062114715576 -0.0011744318762794137001 0)
(-0.0047820047475397586823 -0.001460282597690820694 0)
(-0.0049211527220904827118 -0.00088445062283426523209 0)
(-0.016648679971694946289 -0.00073731679003685712814 1)
(-0.016518397256731987 -0.0022056186571717262268 0)
(-0.0046870973892509937286 -0.0017410105792805552483 0)
(-0.0045757284387946128845 -0.0020156153477728366852 0)
(-0.016599783673882484436 -0.0014728337991982698441 1)
(-0.016404647380113601685 -0.00293423444963991642 0)
(-0.0043052188120782375336 -0.0025426535867154598236 0)
(-0.0041470266878604888916 -0.0027932366356253623962 0)
(-0.0044482839293777942657 -0.0022831489332020282745 0)
(-0.016518397256731987 -0.0022056186571717262268 1)
(-0.016258800402283668518 -0.0036569698713719844818 0)
(-0.0037875536363571882248 -0.0032641135621815919876 0)
(-0.0035875381436198949814 -0.0034827527124434709549 0)
(-0.0039742738008499145508 -0.0030339984223246574402 0)
(-0.016404647380113601685 -0.00293423444963991642 1)
(-0.016081150621175765991 -0.0043724933639168739319 0)
(-0.0029148936737328767776 -0.0040624369867146015167 0)
(-0.0026691197417676448822 -0.0042279777117073535919 0)
(-0.003150441683828830719 -0.0038826169911772012711 0)
(-0.0033749118447303771973 -0.003689169418066740036 0)
(-0.016258800402283668518 -0.0036569698713719844818 1)
(-0.015871992334723472595 -0.0050795720890164375305 0)
(-0.00044398423051461577415 -0.0049802483990788459778 0)
(-0.00014816169277764856815 -0.0049978042952716350555 0)
(-0.00073822785634547472 -0.004945201333612203598 0)
(-0.0010298975976184010506 -0.004892781376838684082 0)
(-0.0013179309898987412453 -0.0048231794498860836029 0)
(-0.0016013534041121602058 -0.0047366297803819179535 0)
(-0.001879133167676627636 -0.004633449949324131012 0)
(-0.0021503295283764600754 -0.0045139868743717670441 0)
(-0.0024139566812664270401 -0.0043786768801510334015 0)
(-0.016081150621175765991 -0.0043724933639168739319 1)
(-0.015631740912795066833 -0.0057767434045672416687 0)
(0.015871992334723472595 -0.0050795720890164375305 0)
(0.015631740912795066833 -0.0057767434045672416687 0)
(-0.015871992334723472595 -0.0050795720890164375305 1)
(-0.015360943041741847992 -0.0064624664373695850372 0)
(0.015360943041741847992 -0.0064624664373695850372 0)
(-0.015631740912795066833 -0.0057767434045672416687 1)
(-0.015060076490044593811 -0.0071355630643665790558 0)
(0.015060076490044593811 -0.0071355630643665790558 0)
(-0.015360943041741847992 -0.0064624664373695850372 1)
(-0.014729657210409641266 -0.0077948323450982570648 0)
(0.014729657210409641266 -0.0077948323450982570648 0)
(-0.015060076490044593811 -0.0071355630643665790558 1)
(-0.014370448887348175049 -0.0084387343376874923706 0)
(0.014370448887348175049 -0.0084387343376874923706 0)
(-0.014729657210409641266 -0.0077948323450982570648 1)
(-0.013983156532049179077 -0.0090660583227872848511 0)
(0.013983156532049179077 -0.0090660583227872848511 0)
(-0.014370448887348175049 -0.0084387343376874923706 1)
(-0.013568442314863204956 -0.0096757225692272186279 0)
(0.013568442314863204956 -0.0096757225692272186279 0)
(-0.013983156532049179077 -0.0090660583227872848511 1)
(-0.01312711276113986969 -0.010266500525176525116 0)
(0.01312711276113986969 -0.010266500525176525116 0)
(-0.013568442314863204956 -0.0096757225692272186279 1)
(-0.01266018301248550415 -0.010837056674063205719 0)
(0.01266018301248550415 -0.010837056674063205719 0)
(-0.01312711276113986969 -0.010266500525176525116 1)
(-0.012168475426733493805 -0.011386410333216190338 0)
(0.012168475426733493805 -0.011386410333216190338 0)
(-0.01266018301248550415 -0.010837056674063205719 1)
(-0.011652836576104164124 -0.011913589201867580414 0)
(0.011652836576104164124 -0.011913589201867580414 0)
(-0.012168475426733493805 -0.011386410333216190338 1)
(-0.011114444583654403687 -0.012417374178767204285 0)
(0.011114444583654403687 -0.012417374178767204285 0)
(-0.011652836576104164124 -0.011913589201867580414 1)
(-0.010554368607699871063 -0.012896796688437461853 0)
(0.010554368607699871063 -0.012896796688437461853 0)
(-0.011114444583654403687 -0.012417374178767204285 1)
(-0.0099735744297504425049 -0.013351030647754669189 0)
(0.0099735744297504425049 -0.013351030647754669189 0)
(-0.010554368607699871063 -0.012896796688437461853 1)
(-0.0093731638044118881226 -0.013779185712337493896 0)
(0.0093731638044118881226 -0.013779185712337493896 0)
(-0.0099735744297504425049 -0.013351030647754669189 1)
(-0.0087545365095138549805 -0.014180272817611694336 0)
(0.0087545365095138549805 -0.014180272817611694336 0)
(-0.0093731638044118881226 -0.013779185712337493896 1)
(-0.0081187877804040908813 -0.014553604647517204285 0)
(0.0081187877804040908813 -0.014553604647517204285 0)
(-0.0087545365095138549805 -0.014180272817611694336 1)
(-0.0074670114554464817047 -0.014898522756993770599 0)
(0.0074670114554464817047 -0.014898522756993770599 0)
(-0.0081187877804040908813 -0.014553604647517204285 1)
(-0.0068006659857928752899 -0.015214237384498119354 0)
(0.0068006659857928752899 -0.015214237384498119354 0)
(-0.0074670114554464817047 -0.014898522756993770599 1)
(-0.0061211097054183483124 -0.015500131994485855103 0)
(0.0061211097054183483124 -0.015500131994485855103 0)
(-0.0068006659857928752899 -0.015214237384498119354 1)
(-0.0054295137524604797363 -0.015755714848637580872 0)
(0.0054295137524604797363 -0.015755714848637580872 0)
(-0.0061211097054183483124 -0.015500131994485855103 1)
(-0.0047271652147173881531 -0.015980491414666175842 0)
(0.0047271652147173881531 -0.015980491414666175842 0)
(-0.0054295137524604797363 -0.015755714848637580872 1)
(-0.0040157097391784191132 -0.016173932701349258423 0)
(0.0040157097391784191132 -0.016173932701349258423 0)
(-0.0047271652147173881531 -0.015980491414666175842 1)
(-0.0032964262645691633224 -0.016335718333721160889 0)
(0.0032964262645691633224 -0.016335718333721160889 0)
(-0.0040157097391784191132 -0.016173932701349258423 1)
(-0.0025705497246235609055 -0.016465555876493453979 0)
(0.0025705497246235609055 -0.016465555876493453979 0)
(-0.0032964262645691633224 -0.016335718333721160889 1)
(-0.0018396606901660561562 -0.016563145443797111511 0)
(0.0018396606901660561562 -0.016563145443797111511 0)
(-0.0025705497246235609055 -0.016465555876493453979 1)
(-0.0011052963091060519218 -0.016628298908472061157 0)
(0.0011052963091060519218 -0.016628298908472061157 0)
(-0.0018396606901660561562 -0.016563145443797111511 1)
(-0.00036872096825391054153 -0.016660919412970542908 0)
(0.00036872096825391054153 -0.016660919412970542908 0)
(-0.0011052963091060519218 -0.016628298908472061157 1)
(-0.00036872096825391054153 -0.016660919412970542908 1)
(0.00036872096825391054153 -0.016660919412970542908 1)
(0.0011052963091060519218 -0.016628298908472061157 1)
(0.0018396606901660561562 -0.016563145443797111511 1)
(0.0025705497246235609055 -0.016465555876493453979 1)
(0.0032964262645691633224 -0.016335718333721160889 1)
(0.0040157097391784191132 -0.016173932701349258423 1)
(0.0047271652147173881531 -0.015980491414666175842 1)
(0.0054295137524604797363 -0.015755714848637580872 1)
(0.0061211097054183483124 -0.015500131994485855103 1)
(0.0068006659857928752899 -0.015214237384498119354 1)
(0.0074670114554464817047 -0.014898522756993770599 1)
(0.0081187877804040908813 -0.014553604647517204285 1)
(0.0087545365095138549805 -0.014180272817611694336 1)
(0.0093731638044118881226 -0.013779185712337493896 1)
(0.0099735744297504425049 -0.013351030647754669189 1)
(0.010554368607699871063 -0.012896796688437461853 1)
(0.011114444583654403687 -0.012417374178767204285 1)
(0.011652836576104164124 -0.011913589201867580414 1)
(0.012168475426733493805 -0.011386410333216190338 1)
(0.01266018301248550415 -0.010837056674063205719 1)
(0.01312711276113986969 -0.010266500525176525116 1)
(0.013568442314863204956 -0.0096757225692272186279 1)
(0.013983156532049179077 -0.0090660583227872848511 1)
(0.014370448887348175049 -0.0084387343376874923706 1)
(0.014729657210409641266 -0.0077948323450982570648 1)
(0.015060076490044593811 -0.0071355630643665790558 1)
(0.015360943041741847992 -0.0064624664373695850372 1)
(0.015631740912795066833 -0.0057767434045672416687 1)
(0.016081150621175765991 -0.0043724933639168739319 0)
(0.0021503295283764600754 -0.0045139868743717670441 0)
(0.0024139566812664270401 -0.0043786768801510334015 0)
(0.001879133167676627636 -0.004633449949324131012 0)
(0.0016013534041121602058 -0.0047366297803819179535 0)
(0.0013179309898987412453 -0.0048231794498860836029 0)
(0.0010298975976184010506 -0.004892781376838684082 0)
(0.00073822785634547472 -0.004945201333612203598 0)
(0.00044398423051461577415 -0.0049802483990788459778 0)
(0.00014816169277764856815 -0.0049978042952716350555 0)
(0.015871992334723472595 -0.0050795720890164375305 1)
(0.016258800402283668518 -0.0036569698713719844818 0)
(0.003150441683828830719 -0.0038826169911772012711 0)
(0.0033749118447303771973 -0.003689169418066740036 0)
(0.0029148936737328767776 -0.0040624369867146015167 0)
(0.0026691197417676448822 -0.0042279777117073535919 0)
(0.016081150621175765991 -0.0043724933639168739319 1)
(0.016404647380113601685 -0.00293423444963991642 0)
(0.0037875536363571882248 -0.0032641135621815919876 0)
(0.0039742738008499145508 -0.0030339984223246574402 0)
(0.0035875381436198949814 -0.0034827527124434709549 0)
(0.016258800402283668518 -0.0036569698713719844818 1)
(0.016518397256731987 -0.0022056186571717262268 0)
(0.0043052188120782375336 -0.0025426535867154598236 0)
(0.0044482839293777942657 -0.0022831489332020282745 0)
(0.0041470266878604888916 -0.0027932366356253623962 0)
(0.016404647380113601685 -0.00293423444963991642 1)
(0.016599783673882484436 -0.0014728337991982698441 0)
(0.0045757284387946128845 -0.0020156153477728366852 0)
(0.0046870973892509937286 -0.0017410105792805552483 0)
(0.016518397256731987 -0.0022056186571717262268 1)
(0.0048601143062114715576 -0.0011744318762794137001 0)
(0.0049211527220904827118 -0.00088445062283426523209 0)
(0.0047820047475397586823 -0.001460282597690820694 0)
(0.016599783673882484436 -0.0014728337991982698441 1)
(0.0049912184476852416992 -0.00029620286659337580204 0)
(0.004964905325323343277 -0.00059136678464710712433 0)
(0.0049999998882412910461 -6.1232339527331095648e-19 1)
(0.0049912184476852416992 0.00029620286659337580204 1)
(0.0049912184476852416992 -0.00029620286659337580204 1)
(0.004964905325323343277 -0.00059136678464710712433 1)
(0.0049211527220904827118 -0.00088445062283426523209 1)
(0.0048601143062114715576 -0.0011744318762794137001 1)
(0.0047820047475397586823 -0.001460282597690820694 1)
(0.0046870973892509937286 -0.0017410105792805552483 1)
(0.0045757284387946128845 -0.0020156153477728366852 1)
(0.0044482839293777942657 -0.0022831489332020282745 1)
(0.0043052188120782375336 -0.0025426535867154598236 1)
(0.0041470266878604888916 -0.0027932366356253623962 1)
(0.0039742738008499145508 -0.0030339984223246574402 1)
(0.0037875536363571882248 -0.0032641135621815919876 1)
(0.0035875381436198949814 -0.0034827527124434709549 1)
(0.0033749118447303771973 -0.003689169418066740036 1)
(0.003150441683828830719 -0.0038826169911772012711 1)
(0.0029148936737328767776 -0.0040624369867146015167 1)
(0.0026691197417676448822 -0.0042279777117073535919 1)
(0.0024139566812664270401 -0.0043786768801510334015 1)
(0.0021503295283764600754 -0.0045139868743717670441 1)
(0.001879133167676627636 -0.004633449949324131012 1)
(0.0016013534041121602058 -0.0047366297803819179535 1)
(0.0013179309898987412453 -0.0048231794498860836029 1)
(0.0010298975976184010506 -0.004892781376838684082 1)
(0.00073822785634547472 -0.004945201333612203598 1)
(0.00044398423051461577415 -0.0049802483990788459778 1)
(0.00014816169277764856815 -0.0049978042952716350555 1)
(-0.00014816169277764856815 -0.0049978042952716350555 1)
(-0.00044398423051461577415 -0.0049802483990788459778 1)
(-0.00073822785634547472 -0.004945201333612203598 1)
(-0.0010298975976184010506 -0.004892781376838684082 1)
(-0.0013179309898987412453 -0.0048231794498860836029 1)
(-0.0016013534041121602058 -0.0047366297803819179535 1)
(-0.001879133167676627636 -0.004633449949324131012 1)
(-0.0021503295283764600754 -0.0045139868743717670441 1)
(-0.0024139566812664270401 -0.0043786768801510334015 1)
(-0.0026691197417676448822 -0.0042279777117073535919 1)
(-0.0029148936737328767776 -0.0040624369867146015167 1)
(-0.003150441683828830719 -0.0038826169911772012711 1)
(-0.0033749118447303771973 -0.003689169418066740036 1)
(-0.0035875381436198949814 -0.0034827527124434709549 1)
(-0.0037875536363571882248 -0.0032641135621815919876 1)
(-0.0039742738008499145508 -0.0030339984223246574402 1)
(-0.0041470266878604888916 -0.0027932366356253623962 1)
(-0.0043052188120782375336 -0.0025426535867154598236 1)
(-0.0044482839293777942657 -0.0022831489332020282745 1)
(-0.0045757284387946128845 -0.0020156153477728366852 1)
(-0.0046870973892509937286 -0.0017410105792805552483 1)
(-0.0047820047475397586823 -0.001460282597690820694 1)
(-0.0048601143062114715576 -0.0011744318762794137001 1)
(-0.0049211527220904827118 -0.00088445062283426523209 1)
(-0.004964905325323343277 -0.00059136678464710712433 1)
(-0.0049912184476852416992 -0.00029620286659337580204 1)
(-0.0049999998882412910461 6.1232339527331095648e-19 1)
(-0.0049912184476852416992 0.00029620286659337580204 1)
(-0.004964905325323343277 0.00059136678464710712433 1)
(-0.0049211527220904827118 0.00088445062283426523209 1)
(-0.0048601143062114715576 0.0011744318762794137001 1)
(-0.0047820047475397586823 0.001460282597690820694 1)
(-0.0046870973892509937286 0.0017410105792805552483 1)
(-0.0045757284387946128845 0.0020156153477728366852 1)
(-0.0044482839293777942657 0.0022831489332020282745 1)
(-0.0043052188120782375336 0.0025426535867154598236 1)
(-0.0041470266878604888916 0.0027932366356253623962 1)
(-0.0039742738008499145508 0.0030339984223246574402 1)
(-0.0037875536363571882248 0.0032641135621815919876 1)
(-0.0035875381436198949814 0.0034827527124434709549 1)
(-0.0033749118447303771973 0.003689169418066740036 1)
(-0.003150441683828830719 0.0038826169911772012711 1)
(-0.0029148936737328767776 0.0040624369867146015167 1)
(-0.0026691197417676448822 0.0042279777117073535919 1)
(-0.0024139566812664270401 0.0043786768801510334015 1)
(-0.0021503295283764600754 0.0045139868743717670441 1)
(-0.001879133167676627636 0.004633449949324131012 1)
(-0.0016013534041121602058 0.0047366297803819179535 1)
(-0.0013179309898987412453 0.0048231794498860836029 1)
(-0.0010298975976184010506 0.004892781376838684082 1)
(-0.00073822785634547472 0.004945201333612203598 1)
(-0.00044398423051461577415 0.0049802483990788459778 1)
(-0.00014816169277764856815 0.0049978042952716350555 1)
(0.00014816169277764856815 0.0049978042952716350555 1)
(0.00044398423051461577415 0.0049802483990788459778 1)
(0.00073822785634547472 0.004945201333612203598 1)
(0.0010298975976184010506 0.004892781376838684082 1)
(0.0013179309898987412453 0.0048231794498860836029 1)
(0.0016013534041121602058 0.0047366297803819179535 1)
(0.001879133167676627636 0.004633449949324131012 1)
(0.0021503295283764600754 0.0045139868743717670441 1)
(0.0024139566812664270401 0.0043786768801510334015 1)
(0.0026691197417676448822 0.0042279777117073535919 1)
(0.0029148936737328767776 0.0040624369867146015167 1)
(0.003150441683828830719 0.0038826169911772012711 1)
(0.0033749118447303771973 0.003689169418066740036 1)
(0.0035875381436198949814 0.0034827527124434709549 1)
(0.0037875536363571882248 0.0032641135621815919876 1)
(0.0039742738008499145508 0.0030339984223246574402 1)
(0.0041470266878604888916 0.0027932366356253623962 1)
(0.0043052188120782375336 0.0025426535867154598236 1)
(0.0044482839293777942657 0.0022831489332020282745 1)
(0.0045757284387946128845 0.0020156153477728366852 1)
(0.0046870973892509937286 0.0017410105792805552483 1)
(0.0047820047475397586823 0.001460282597690820694 1)
(0.0048601143062114715576 0.0011744318762794137001 1)
(0.0049211527220904827118 0.00088445062283426523209 1)
(0.004964905325323343277 0.00059136678464710712433 1)
)

// edges

496
(
(0 1)
(1 2)
(3 4)
(4 5)
(6 7)
(8 0)
(9 10)
(11 9)
(5 11)
(12 6)
(13 8)
(14 15)
(10 14)
(16 12)
(17 13)
(18 19)
(20 18)
(15 20)
(21 16)
(22 17)
(23 24)
(25 23)
(19 25)
(26 21)
(27 22)
(28 29)
(30 28)
(31 30)
(24 31)
(32 26)
(33 27)
(34 35)
(36 34)
(37 36)
(38 37)
(39 38)
(40 39)
(41 40)
(42 41)
(29 42)
(43 32)
(44 33)
(45 46)
(47 43)
(48 44)
(46 49)
(50 47)
(51 48)
(49 52)
(53 50)
(54 51)
(52 55)
(56 53)
(57 54)
(55 58)
(59 56)
(60 57)
(58 61)
(62 59)
(63 60)
(61 64)
(65 62)
(66 63)
(64 67)
(68 65)
(69 66)
(67 70)
(71 68)
(72 69)
(70 73)
(74 71)
(75 72)
(73 76)
(77 74)
(78 75)
(76 79)
(80 77)
(81 78)
(79 82)
(83 80)
(84 81)
(82 85)
(86 83)
(87 84)
(85 88)
(89 86)
(90 87)
(88 91)
(92 89)
(93 90)
(91 94)
(95 92)
(96 93)
(94 97)
(98 95)
(99 96)
(97 100)
(101 98)
(102 99)
(100 103)
(104 101)
(105 102)
(103 106)
(107 104)
(108 105)
(106 109)
(110 107)
(111 108)
(109 112)
(113 110)
(114 111)
(112 115)
(116 113)
(117 114)
(115 118)
(119 116)
(120 117)
(118 121)
(122 119)
(123 120)
(121 124)
(125 122)
(126 123)
(127 126)
(124 127)
(128 125)
(129 128)
(130 129)
(131 130)
(132 131)
(133 132)
(134 133)
(135 134)
(136 135)
(137 136)
(138 137)
(139 138)
(140 139)
(141 140)
(142 141)
(143 142)
(144 143)
(145 144)
(146 145)
(147 146)
(148 147)
(149 148)
(150 149)
(151 150)
(152 151)
(153 152)
(154 153)
(155 154)
(156 155)
(157 156)
(158 45)
(159 160)
(161 159)
(162 161)
(163 162)
(164 163)
(165 164)
(166 165)
(167 166)
(35 167)
(168 157)
(169 158)
(170 171)
(172 170)
(173 172)
(160 173)
(174 168)
(175 169)
(176 177)
(178 176)
(171 178)
(179 174)
(180 175)
(181 182)
(183 181)
(177 183)
(184 179)
(185 180)
(186 187)
(182 186)
(188 184)
(189 185)
(190 191)
(192 190)
(187 192)
(193 188)
(194 189)
(195 196)
(197 195)
(191 197)
(198 193)
(199 194)
(200 201)
(196 200)
(202 198)
(203 199)
(204 205)
(206 204)
(201 206)
(207 202)
(208 203)
(209 210)
(205 209)
(211 207)
(212 208)
(213 214)
(215 213)
(210 215)
(216 211)
(217 212)
(218 219)
(220 218)
(214 220)
(221 216)
(222 217)
(223 224)
(225 223)
(226 225)
(219 226)
(227 221)
(228 222)
(229 230)
(231 229)
(232 231)
(233 232)
(234 233)
(235 234)
(236 235)
(237 236)
(224 237)
(238 227)
(239 228)
(240 241)
(242 238)
(243 239)
(241 244)
(245 242)
(246 243)
(244 247)
(248 245)
(249 246)