/*--------------------------------*- C++ -*----------------------------------*\
| =========                 |                                                 |
| \\      /  F ield         | OpenFOAM: The Open Source CFD Toolbox           |
|  \\    /   O peration     | Version:  2012                                  |
|   \\  /    A nd           | Website:  www.openfoam.com                      |
|    \\/     M anipulation  |                                                 |
\*---------------------------------------------------------------------------*/
FoamFile
{
    version     2.0;
    format      ascii;
    class       extendedFeatureEdgeMesh;
    location    "constant/extendedFeatureEdgeMesh";
    object      outBox.extendedFeatureEdgeMesh;
}
// * * * * * * * * * * * * * * * * * * * * * * * * * * * * * * * * * * * * * //

// points

212
(
(0.0049911760725080966949 0.00029663241002708673477 0)
(0.0049999998882412910461 -6.1232339527331095648e-19 0)
(-0.0049999998882412910461 6.1232339527331095648e-19 0)
(-0.0049911760725080966949 0.00029663241002708673477 0)
(0.0049911760725080966949 -0.00029663241002708673477 0)
(0.0049999998882412910461 -6.1232339527331095648e-19 1)
(0.0049911760725080966949 -0.00029663241002708673477 1)
(0.0049649113789200782776 0.00059131043963134288788 0)
(-0.0049649113789200782776 0.00059131043963134288788 0)
(0.0049911760725080966949 0.00029663241002708673477 1)
(0.0049211266450583934784 0.00088449608301743865013 0)
(-0.0049211266450583934784 0.00088449608301743865013 0)
(0.0049649113789200782776 0.00059131043963134288788 1)
(0.0048601333983242511749 0.0011743406066671013832 0)
(-0.0048601333983242511749 0.0011743406066671013832 0)
(0.0049211266450583934784 0.00088449608301743865013 1)
(0.0047819674946367740631 0.0014603526797145605087 0)
(-0.0047819674946367740631 0.0014603526797145605087 0)
(0.0048601333983242511749 0.0011743406066671013832 1)
(0.0046871309168636798859 0.0017409033607691526413 0)
(-0.0046871309168636798859 0.0017409033607691526413 0)
(0.0047819674946367740631 0.0014603526797145605087 1)
(0.0045756762847304344177 0.0020157017279416322708 0)
(-0.0045756762847304344177 0.0020157017279416322708 0)
(0.0046871309168636798859 0.0017409033607691526413 1)
(0.0044483290985226631165 0.0022830418311059474945 0)
(-0.0044483290985226631165 0.0022830418311059474945 0)
(0.0045756762847304344177 0.0020157017279416322708 1)
(0.0043051526881754398346 0.0025427460204809904099 0)
(-0.0043051526881754398346 0.0025427460204809904099 0)
(0.0044483290985226631165 0.0022830418311059474945 1)
(0.004147076047956943512 0.0027931409422308206558 0)
(-0.004147076047956943512 0.0027931409422308206558 0)
(0.0043051526881754398346 0.0025427460204809904099 1)
(0.003974198363721370697 0.0030340857338160276413 0)
(-0.003974198363721370697 0.0030340857338160276413 0)
(0.004147076047956943512 0.0027931409422308206558 1)
(0.0037876002024859189987 0.0032640367280691862106 0)
(-0.0037876002024859189987 0.0032640367280691862106 0)
(0.003974198363721370697 0.0030340857338160276413 1)
(0.0035874643363058567047 0.0034828237257897853851 0)
(-0.0035874643363058567047 0.0034828237257897853851 0)
(0.0037876002024859189987 0.0032640367280691862106 1)
(0.0033749465364962816238 0.0036891142372041940689 0)
(-0.0033749465364962816238 0.0036891142372041940689 0)
(0.0035874643363058567047 0.0034828237257897853851 1)
(0.0031503841746598482132 0.0038826621603220701218 0)
(-0.0031503841746598482132 0.0038826621603220701218 0)
(0.0033749465364962816238 0.0036891142372041940689 1)
(0.002914909040555357933 0.0040624034591019153595 0)
(-0.002914909040555357933 0.0040624034591019153595 0)
(0.0031503841746598482132 0.0038826621603220701218 1)
(0.0026690990198403596878 0.0042279912158846855164 0)
(-0.0026690990198403596878 0.0042279912158846855164 0)
(0.002914909040555357933 0.0040624034591019153595 1)
(0.0024139471352100372314 0.0043786610476672649384 0)
(-0.0024139471352100372314 0.0043786610476672649384 0)
(0.0026690990198403596878 0.0042279912158846855164 1)
(0.0021503614261746406555 0.0045139719732105731964 0)
(-0.0021503614261746406555 0.0045139719732105731964 0)
(0.0024139471352100372314 0.0043786610476672649384 1)
(0.0018790957983583211899 0.0046334457583725452423 0)
(-0.0018790957983583211899 0.0046334457583725452423 0)
(0.0021503614261746406555 0.0045139719732105731964 1)
(0.0016014259308576583862 0.0047366037033498287201 0)
(-0.0016014259308576583862 0.0047366037033498287201 0)
(0.0018790957983583211899 0.0046334457583725452423 1)
(0.0013178659137338399887 0.0048231803812086582184 0)
(-0.0013178659137338399887 0.0048231803812086582184 0)
(0.0016014259308576583862 0.0047366037033498287201 1)
(0.0010299951536580920219 0.0048927557654678821564 0)
(-0.0010299951536580920219 0.0048927557654678821564 0)
(0.0013178659137338399887 0.0048231803812086582184 1)
(0.00073813972994685173035 0.0049452004022896289825 0)
(-0.00073813972994685173035 0.0049452004022896289825 0)
(0.0010299951536580920219 0.0048927557654678821564 1)
(0.00044409162364900112152 0.0049802311696112155914 0)
(-0.00044409162364900112152 0.0049802311696112155914 0)
(0.00073813972994685173035 0.0049452004022896289825 1)
(0.00014805834507569670677 0.0049977959133684635162 0)
(-0.00014805834507569670677 0.0049977959133684635162 0)
(0.00044409162364900112152 0.0049802311696112155914 1)
(0.00014805834507569670677 0.0049977959133684635162 1)
(-0.00014805834507569670677 0.0049977959133684635162 1)
(-0.00044409162364900112152 0.0049802311696112155914 1)
(-0.00073813972994685173035 0.0049452004022896289825 1)
(-0.0010299951536580920219 0.0048927557654678821564 1)
(-0.0013178659137338399887 0.0048231803812086582184 1)
(-0.0016014259308576583862 0.0047366037033498287201 1)
(-0.0018790957983583211899 0.0046334457583725452423 1)
(-0.0021503614261746406555 0.0045139719732105731964 1)
(-0.0024139471352100372314 0.0043786610476672649384 1)
(-0.0026690990198403596878 0.0042279912158846855164 1)
(-0.002914909040555357933 0.0040624034591019153595 1)
(-0.0031503841746598482132 0.0038826621603220701218 1)
(-0.0033749465364962816238 0.0036891142372041940689 1)
(-0.0035874643363058567047 0.0034828237257897853851 1)
(-0.0037876002024859189987 0.0032640367280691862106 1)
(-0.003974198363721370697 0.0030340857338160276413 1)
(-0.004147076047956943512 0.0027931409422308206558 1)
(-0.0043051526881754398346 0.0025427460204809904099 1)
(-0.0044483290985226631165 0.0022830418311059474945 1)
(-0.0045756762847304344177 0.0020157017279416322708 1)
(-0.0046871309168636798859 0.0017409033607691526413 1)
(-0.0047819674946367740631 0.0014603526797145605087 1)
(-0.0048601333983242511749 0.0011743406066671013832 1)
(-0.0049211266450583934784 0.00088449608301743865013 1)
(-0.0049649113789200782776 0.00059131043963134288788 1)
(-0.0049911760725080966949 0.00029663241002708673477 1)
(-0.0049911760725080966949 -0.00029663241002708673477 0)
(-0.0049999998882412910461 6.1232339527331095648e-19 1)
(-0.0049649113789200782776 -0.00059131043963134288788 0)
(0.0049649113789200782776 -0.00059131043963134288788 0)
(-0.0049911760725080966949 -0.00029663241002708673477 1)
(-0.0049211266450583934784 -0.00088449608301743865013 0)
(0.0049211266450583934784 -0.00088449608301743865013 0)
(-0.0049649113789200782776 -0.00059131043963134288788 1)
(-0.0048601333983242511749 -0.0011743406066671013832 0)
(0.0048601333983242511749 -0.0011743406066671013832 0)
(-0.0049211266450583934784 -0.00088449608301743865013 1)
(-0.0047819674946367740631 -0.0014603526797145605087 0)
(0.0047819674946367740631 -0.0014603526797145605087 0)
(-0.0048601333983242511749 -0.0011743406066671013832 1)
(-0.0046871309168636798859 -0.0017409033607691526413 0)
(0.0046871309168636798859 -0.0017409033607691526413 0)
(-0.0047819674946367740631 -0.0014603526797145605087 1)
(-0.0045756762847304344177 -0.0020157017279416322708 0)
(0.0045756762847304344177 -0.0020157017279416322708 0)
(-0.0046871309168636798859 -0.0017409033607691526413 1)
(-0.0044483290985226631165 -0.0022830418311059474945 0)
(0.0044483290985226631165 -0.0022830418311059474945 0)
(-0.0045756762847304344177 -0.0020157017279416322708 1)
(-0.0043051526881754398346 -0.0025427460204809904099 0)
(0.0043051526881754398346 -0.0025427460204809904099 0)
(-0.0044483290985226631165 -0.0022830418311059474945 1)
(-0.004147076047956943512 -0.0027931409422308206558 0)
(0.004147076047956943512 -0.0027931409422308206558 0)
(-0.0043051526881754398346 -0.0025427460204809904099 1)
(-0.003974198363721370697 -0.0030340857338160276413 0)
(0.003974198363721370697 -0.0030340857338160276413 0)
(-0.004147076047956943512 -0.0027931409422308206558 1)
(-0.0037876002024859189987 -0.0032640367280691862106 0)
(0.0037876002024859189987 -0.0032640367280691862106 0)
(-0.003974198363721370697 -0.0030340857338160276413 1)
(-0.0035874643363058567047 -0.0034828237257897853851 0)
(0.0035874643363058567047 -0.0034828237257897853851 0)
(-0.0037876002024859189987 -0.0032640367280691862106 1)
(-0.0033749465364962816238 -0.0036891142372041940689 0)
(0.0033749465364962816238 -0.0036891142372041940689 0)
(-0.0035874643363058567047 -0.0034828237257897853851 1)
(-0.0031503841746598482132 -0.0038826621603220701218 0)
(0.0031503841746598482132 -0.0038826621603220701218 0)
(-0.0033749465364962816238 -0.0036891142372041940689 1)
(-0.002914909040555357933 -0.0040624034591019153595 0)
(0.002914909040555357933 -0.0040624034591019153595 0)
(-0.0031503841746598482132 -0.0038826621603220701218 1)
(-0.0026690990198403596878 -0.0042279912158846855164 0)
(0.0026690990198403596878 -0.0042279912158846855164 0)
(-0.002914909040555357933 -0.0040624034591019153595 1)
(-0.0024139471352100372314 -0.0043786610476672649384 0)
(0.0024139471352100372314 -0.0043786610476672649384 0)
(-0.0026690990198403596878 -0.0042279912158846855164 1)
(-0.0021503614261746406555 -0.0045139719732105731964 0)
(0.0021503614261746406555 -0.0045139719732105731964 0)
(-0.0024139471352100372314 -0.0043786610476672649384 1)
(-0.0018790957983583211899 -0.0046334457583725452423 0)
(0.0018790957983583211899 -0.0046334457583725452423 0)
(-0.0021503614261746406555 -0.0045139719732105731964 1)
(-0.0016014259308576583862 -0.0047366037033498287201 0)
(0.0016014259308576583862 -0.0047366037033498287201 0)
(-0.0018790957983583211899 -0.0046334457583725452423 1)
(-0.0013178659137338399887 -0.0048231803812086582184 0)
(0.0013178659137338399887 -0.0048231803812086582184 0)
(-0.0016014259308576583862 -0.0047366037033498287201 1)
(-0.0010299951536580920219 -0.0048927557654678821564 0)
(0.0010299951536580920219 -0.0048927557654678821564 0)
(-0.0013178659137338399887 -0.0048231803812086582184 1)
(-0.00073813972994685173035 -0.0049452004022896289825 0)
(0.00073813972994685173035 -0.0049452004022896289825 0)
(-0.0010299951536580920219 -0.0048927557654678821564 1)
(-0.00044409162364900112152 -0.0049802311696112155914 0)
(0.00044409162364900112152 -0.0049802311696112155914 0)
(-0.00073813972994685173035 -0.0049452004022896289825 1)
(-0.00014805834507569670677 -0.0049977959133684635162 0)
(0.00014805834507569670677 -0.0049977959133684635162 0)
(-0.00044409162364900112152 -0.0049802311696112155914 1)
(-0.00014805834507569670677 -0.0049977959133684635162 1)
(0.00014805834507569670677 -0.0049977959133684635162 1)
(0.00044409162364900112152 -0.0049802311696112155914 1)
(0.00073813972994685173035 -0.0049452004022896289825 1)
(0.0010299951536580920219 -0.0048927557654678821564 1)
(0.0013178659137338399887 -0.0048231803812086582184 1)
(0.0016014259308576583862 -0.0047366037033498287201 1)
(0.0018790957983583211899 -0.0046334457583725452423 1)
(0.0021503614261746406555 -0.0045139719732105731964 1)
(0.0024139471352100372314 -0.0043786610476672649384 1)
(0.0026690990198403596878 -0.0042279912158846855164 1)
(0.002914909040555357933 -0.0040624034591019153595 1)
(0.0031503841746598482132 -0.0038826621603220701218 1)
(0.0033749465364962816238 -0.0036891142372041940689 1)
(0.0035874643363058567047 -0.0034828237257897853851 1)
(0.0037876002024859189987 -0.0032640367280691862106 1)
(0.003974198363721370697 -0.0030340857338160276413 1)
(0.004147076047956943512 -0.0027931409422308206558 1)
(0.0043051526881754398346 -0.0025427460204809904099 1)
(0.0044483290985226631165 -0.0022830418311059474945 1)
(0.0045756762847304344177 -0.0020157017279416322708 1)
(0.0046871309168636798859 -0.0017409033607691526413 1)
(0.0047819674946367740631 -0.0014603526797145605087 1)
(0.0048601333983242511749 -0.0011743406066671013832 1)
(0.0049211266450583934784 -0.00088449608301743865013 1)
(0.0049649113789200782776 -0.00059131043963134288788 1)
)

// edges

212
(
(0 1)
(2 3)
(1 4)
(5 6)
(7 0)
(3 8)
(9 5)
(10 7)
(8 11)
(12 9)
(13 10)
(11 14)
(15 12)
(16 13)
(14 17)
(18 15)
(19 16)
(17 20)
(21 18)
(22 19)
(20 23)
(24 21)
(25 22)
(23 26)
(27 24)
(28 25)
(26 29)
(30 27)
(31 28)
(29 32)
(33 30)
(34 31)
(32 35)
(36 33)
(37 34)
(35 38)
(39 36)
(40 37)
(38 41)
(42 39)
(43 40)
(41 44)
(45 42)
(46 43)
(44 47)
(48 45)
(49 46)
(47 50)
(51 48)
(52 49)
(50 53)
(54 51)
(55 52)
(53 56)
(57 54)
(58 55)
(56 59)
(60 57)
(61 58)
(59 62)
(63 60)
(64 61)
(62 65)
(66 63)
(67 64)
(65 68)
(69 66)
(70 67)
(68 71)
(72 69)
(73 70)
(71 74)
(75 72)
(76 73)
(74 77)
(78 75)
(79 76)
(80 79)
(77 80)
(81 78)
(82 81)
(83 82)
(84 83)
(85 84)
(86 85)
(87 86)
(88 87)
(89 88)
(90 89)
(91 90)
(92 91)
(93 92)
(94 93)
(95 94)
(96 95)
(97 96)
(98 97)
(99 98)
(100 99)
(101 100)
(102 101)
(103 102)
(104 103)
(105 104)
(106 105)
(107 106)
(108 107)
(109 2)
(110 108)
(111 109)
(4 112)
(113 110)
(114 111)
(112 115)
(116 113)
(117 114)
(115 118)
(119 116)
(120 117)
(118 121)
(122 119)
(123 120)
(121 124)
(125 122)
(126 123)
(124 127)
(128 125)
(129 126)
(127 130)
(131 128)
(132 129)
(130 133)
(134 131)
(135 132)
(133 136)
(137 134)
(138 135)
(136 139)
(140 137)
(141 138)
(139 142)
(143 140)
(144 141)
(142 145)
(146 143)
(147 144)
(145 148)
(149 146)
(150 147)
(148 151)
(152 149)
(153 150)
(151 154)
(155 152)
(156 153)
(154 157)
(158 155)
(159 156)
(157 160)
(161 158)
(162 159)
(160 163)
(164 161)
(165 162)
(163 166)
(167 164)
(168 165)
(166 169)
(170 167)
(171 168)
(169 172)
(173 170)
(174 171)
(172 175)
(176 173)
(177 174)
(175 178)
(179 176)
(180 177)
(178 181)
(182 179)
(183 180)
(184 183)
(181 184)
(185 182)
(186 185)
(187 186)
(188 187)
(189 188)
(190 189)
(191 190)
(192 191)
(193 192)
(194 193)
(195 194)
(196 195)
(197 196)
(198 197)
(199 198)
(200 199)
(201 200)
(202 201)
(203 202)
(204 203)
(205 204)
(206 205)
(207 206)
(208 207)
(209 208)
(210 209)
(211 210)
(6 211)
)

// concaveStart mixedStart nonFeatureStart
0 0 0
// internalStart flatStart openStart multipleStart
212 212 212 212
// normals

420
(
(0 0 -1)
(0.99955786228447518482 0.029733481889785622759 0)
(0 0 -1)
(-0.99955786228447518482 0.02973348188978574419 0)
(0 0 -1)
(0.99955786228447518482 -0.02973348188978574419 0)
(0.99955786228447518482 -0.02973348188978574419 0)
(0 0 1)
(0 0 -1)
(0.99605141987158452022 0.088778200994391306966 0)
(0 0 -1)
(-0.99605141987158452022 0.088778200994391306966 0)
(0.99955786228447518482 0.029733481889785622759 0)
(0 0 1)
(0 0 -1)
(0.98903171425148272977 0.14770331142115111778 0)
(0 0 -1)
(-0.98903171425148272977 0.14770331142115111778 0)
(0.99605141987158452022 0.088778200994391306966 0)
(0 0 1)
(0 0 -1)
(0.97856792147016458117 0.2059243139349063445 0)
(0 0 -1)
(-0.97856792147016458117 0.2059243139349063445 0)
(0.98903171425148272977 0.14770331142115111778 0)
(0 0 1)
(0 0 -1)
(0.96462446847156790852 0.26362783393629968254 0)
(0 0 -1)
(-0.96462446847156790852 0.26362783393629968254 0)
(0.97856792147016458117 0.2059243139349063445 0)
(0 0 1)
(0 0 -1)
(0.94733796396929403905 0.32023551024599472559 0)
(0 0 -1)
(-0.94733796396929403905 0.32023551024599472559 0)
(0.96462446847156790852 0.26362783393629968254 0)
(0 0 1)
(0 0 -1)
(0.92668068055894237123 0.37584959262824180204 0)
(0 0 -1)
(-0.92668068055894237123 0.37584959262824180204 0)
(0.94733796396929403905 0.32023551024599472559 0)
(0 0 1)
(0 0 -1)
(0.90280496393345943673 0.43005022624933575415 0)
(0 0 -1)
(-0.90280496393345943673 0.43005022624933575415 0)
(0.92668068055894237123 0.37584959262824180204 0)
(0 0 1)
(0 0 -1)
(0.87573261774789001866 0.48279641901367464918 0)
(0 0 -1)
(-0.87573261774789001866 0.48279641901367464918 0)
(0.90280496393345943673 0.43005022624933575415 0)
(0 0 1)
(0 0 -1)
(0.84559183507111157496 0.53382998085633026619 0)
(0 0 -1)
(-0.84559183507111157496 0.53382998085633026619 0)
(0.87573261774789001866 0.48279641901367464918 0)
(0 0 1)
(0 0 -1)
(0.81249674494834778216 0.582965727507491982 0)
(0 0 -1)
(-0.81249674494834778216 0.582965727507491982 0)
(0.84559183507111157496 0.53382998085633026619 0)
(0 0 1)
(0 0 -1)
(0.77650556663886971531 0.63011039110527933271 0)
(0 0 -1)
(-0.77650556663886971531 0.63011039110527933271 0)
(0.81249674494834778216 0.582965727507491982 0)
(0 0 1)
(0 0 -1)
(0.73785741273482707836 0.67495661969660458723 0)
(0 0 -1)
(-0.73785741273482707836 0.67495661969660458723 0)
(0.77650556663886971531 0.63011039110527933271 0)
(0 0 1)
(0 0 -1)
(0.69651577205661441283 0.71754148261712236145 0)
(0 0 -1)
(-0.69651577205661441283 0.71754148261712236145 0)
(0.73785741273482707836 0.67495661969660458723 0)
(0 0 1)
(0 0 -1)
(0.65286159725129555564 0.75747721736992679187 0)
(0 0 -1)
(-0.65286159725129555564 0.75747721736992679187 0)
(0.69651577205661441283 0.71754148261712236145 0)
(0 0 1)
(0 0 -1)
(0.60675137492945763196 0.79489167124911608298 0)
(0 0 -1)
(-0.60675137492945763196 0.79489167124911608298 0)
(0.65286159725129555564 0.75747721736992679187 0)
(0 0 1)
(0 0 -1)
(0.55869840671637005514 0.82937090034108951198 0)
(0 0 -1)
(-0.55869840671637005514 0.82937090034108951198 0)
(0.60675137492945763196 0.79489167124911608298 0)
(0 0 1)
(0 0 -1)
(0.50847481103634784017 0.86107686447932763052 0)
(0 0 -1)
(-0.50847481103634784017 0.86107686447932763052 0)
(0.55869840671637005514 0.82937090034108951198 0)
(0 0 1)
(0 0 -1)
(0.45668743761753238797 0.88962721649145404257 0)
(0 0 -1)
(-0.45668743761753238797 0.88962721649145404257 0)
(0.50847481103634784017 0.86107686447932763052 0)
(0 0 1)
(0 0 -1)
(0.40306903033627056177 0.91516957815684563116 0)
(0 0 -1)
(-0.40306903033627056177 0.91516957815684563116 0)
(0.45668743761753238797 0.88962721649145404257 0)
(0 0 1)
(0 0 -1)
(0.34825601625795765681 0.93739945975029093095 0)
(0 0 -1)
(-0.34825601625795765681 0.93739945975029093095 0)
(0.40306903033627056177 0.91516957815684563116 0)
(0 0 1)
(0 0 -1)
(0.29201288951834275531 0.95641438318081983816 0)
(0 0 -1)
(-0.29201288951834275531 0.95641438318081983816 0)
(0.34825601625795765681 0.93739945975029093095 0)
(0 0 1)
(0 0 -1)
(0.23492557260108370976 0.97201336170757091093 0)
(0 0 -1)
(-0.23492557260108370976 0.97201336170757091093 0)
(0.29201288951834275531 0.95641438318081983816 0)
(0 0 1)
(0 0 -1)
(0.17686116273210170102 0.98423580971078727941 0)
(0 0 -1)
(-0.17686116273210170102 0.98423580971078727941 0)
(0.23492557260108370976 0.97201336170757091093 0)
(0 0 1)
(0 0 -1)
(0.11829626719487616737 0.99297834476274371429 0)
(0 0 -1)
(-0.11829626719487616737 0.99297834476274371429 0)
(0.17686116273210170102 0.98423580971078727941 0)
(0 0 1)
(0 0 -1)
(0.05922951306345025646 0.99824439131019737648 0)
(0 1 0)
(0 0 -1)
(-0.05922951306345025646 0.99824439131019737648 0)
(0.11829626719487616737 0.99297834476274371429 0)
(0 0 1)
(0.05922951306345025646 0.99824439131019737648 0)
(0 0 1)
(0 1 0)
(0 0 1)
(-0.05922951306345025646 0.99824439131019737648 0)
(-0.11829626719487616737 0.99297834476274371429 0)
(0 0 1)
(-0.17686116273210170102 0.98423580971078727941 0)
(0 0 1)
(-0.23492557260108370976 0.97201336170757091093 0)
(0 0 1)
(-0.29201288951834275531 0.95641438318081983816 0)
(0 0 1)
(-0.34825601625795765681 0.93739945975029093095 0)
(0 0 1)
(-0.40306903033627056177 0.91516957815684563116 0)
(0 0 1)
(-0.45668743761753238797 0.88962721649145404257 0)
(0 0 1)
(-0.50847481103634784017 0.86107686447932763052 0)
(0 0 1)
(-0.55869840671637005514 0.82937090034108951198 0)
(0 0 1)
(-0.60675137492945763196 0.79489167124911608298 0)
(0 0 1)
(-0.65286159725129555564 0.75747721736992679187 0)
(0 0 1)
(-0.69651577205661441283 0.71754148261712236145 0)
(0 0 1)
(-0.73785741273482707836 0.67495661969660458723 0)
(0 0 1)
(-0.77650556663886971531 0.63011039110527933271 0)
(0 0 1)
(-0.81249674494834778216 0.582965727507491982 0)
(0 0 1)
(-0.84559183507111157496 0.53382998085633026619 0)
(0 0 1)
(-0.87573261774789001866 0.48279641901367464918 0)
(0 0 1)
(-0.90280496393345943673 0.43005022624933575415 0)
(0 0 1)
(-0.92668068055894237123 0.37584959262824180204 0)
(0 0 1)
(-0.94733796396929403905 0.32023551024599472559 0)
(0 0 1)
(-0.96462446847156790852 0.26362783393629968254 0)
(0 0 1)
(-0.97856792147016458117 0.2059243139349063445 0)
(0 0 1)
(-0.98903171425148272977 0.14770331142115111778 0)
(0 0 1)
(-0.99605141987158452022 0.088778200994391306966 0)
(0 0 1)
(0 0 -1)
(-0.99955786228447518482 -0.029733481889785622759 -0)
(-0.99955786228447518482 0.02973348188978574419 0)
(0 0 1)
(0 0 -1)
(-0.99605141987158452022 -0.088778200994391306966 -0)
(-0 0 -1)
(0.99605141987158452022 -0.088778200994391306966 0)
(-0.99955786228447518482 -0.029733481889785622759 0)
(0 0 1)
(0 0 -1)
(-0.98903171425148272977 -0.14770331142115111778 -0)
(-0 0 -1)
(0.98903171425148272977 -0.14770331142115111778 0)
(-0.99605141987158452022 -0.088778200994391306966 0)
(-0 0 1)
(0 0 -1)
(-0.97856792147016458117 -0.2059243139349063445 -0)
(-0 0 -1)
(0.97856792147016458117 -0.2059243139349063445 0)
(-0.98903171425148272977 -0.14770331142115111778 0)
(-0 0 1)
(0 0 -1)
(-0.96462446847156790852 -0.26362783393629968254 -0)
(-0 0 -1)
(0.96462446847156790852 -0.26362783393629968254 0)
(-0.97856792147016458117 -0.2059243139349063445 0)
(-0 0 1)
(0 0 -1)
(-0.94733796396929403905 -0.32023551024599472559 -0)
(-0 0 -1)
(0.94733796396929403905 -0.32023551024599472559 0)
(-0.96462446847156790852 -0.26362783393629968254 0)
(-0 0 1)
(0 0 -1)
(-0.92668068055894237123 -0.37584959262824180204 -0)
(-0 0 -1)
(0.92668068055894237123 -0.37584959262824180204 0)
(-0.94733796396929403905 -0.32023551024599472559 0)
(-0 0 1)
(0 0 -1)
(-0.90280496393345943673 -0.43005022624933575415 -0)
(-0 0 -1)
(0.90280496393345943673 -0.43005022624933575415 0)
(-0.92668068055894237123 -0.37584959262824180204 0)
(-0 0 1)
(0 0 -1)
(-0.87573261774789001866 -0.48279641901367464918 -0)
(-0 0 -1)
(0.87573261774789001866 -0.48279641901367464918 0)
(-0.90280496393345943673 -0.43005022624933575415 0)
(-0 0 1)
(0 0 -1)
(-0.84559183507111157496 -0.53382998085633026619 -0)
(-0 0 -1)
(0.84559183507111157496 -0.53382998085633026619 0)
(-0.87573261774789001866 -0.48279641901367464918 0)
(-0 0 1)
(0 0 -1)
(-0.81249674494834778216 -0.582965727507491982 -0)
(-0 0 -1)
(0.81249674494834778216 -0.582965727507491982 0)
(-0.84559183507111157496 -0.53382998085633026619 0)
(-0 0 1)
(0 0 -1)
(-0.77650556663886971531 -0.63011039110527933271 -0)
(-0 0 -1)
(0.77650556663886971531 -0.63011039110527933271 0)
(-0.81249674494834778216 -0.582965727507491982 0)
(-0 0 1)
(0 0 -1)
(-0.73785741273482707836 -0.67495661969660458723 -0)
(-0 0 -1)
(0.73785741273482707836 -0.67495661969660458723 0)
(-0.77650556663886971531 -0.63011039110527933271 0)
(-0 0 1)
(0 0 -1)
(-0.69651577205661441283 -0.71754148261712236145 -0)
(-0 0 -1)
(0.69651577205661441283 -0.71754148261712236145 0)
(-0.73785741273482707836 -0.67495661969660458723 0)
(-0 0 1)
(0 0 -1)
(-0.65286159725129555564 -0.75747721736992679187 -0)
(-0 0 -1)
(0.65286159725129555564 -0.75747721736992679187 0)
(-0.69651577205661441283 -0.71754148261712236145 0)
(-0 0 1)
(0 0 -1)
(-0.60675137492945763196 -0.79489167124911608298 -0)
(-0 0 -1)
(0.60675137492945763196 -0.79489167124911608298 0)
(-0.65286159725129555564 -0.75747721736992679187 0)
(-0 0 1)
(0 0 -1)
(-0.55869840671637005514 -0.82937090034108951198 -0)
(-0 0 -1)
(0.55869840671637005514 -0.82937090034108951198 0)
(-0.60675137492945763196 -0.79489167124911608298 0)
(-0 0 1)
(0 0 -1)
(-0.50847481103634784017 -0.86107686447932763052 -0)
(-0 0 -1)
(0.50847481103634784017 -0.86107686447932763052 0)
(-0.55869840671637005514 -0.82937090034108951198 0)
(-0 0 1)
(0 0 -1)
(-0.45668743761753238797 -0.88962721649145404257 -0)
(-0 0 -1)
(0.45668743761753238797 -0.88962721649145404257 0)
(-0.50847481103634784017 -0.86107686447932763052 0)
(-0 0 1)
(0 0 -1)
(-0.40306903033627056177 -0.91516957815684563116 -0)
(-0 0 -1)
(0.40306903033627056177 -0.91516957815684563116 0)
(-0.45668743761753238797 -0.88962721649145404257 0)
(-0 0 1)
(0 0 -1)
(-0.34825601625795765681 -0.93739945975029093095 -0)
(-0 0 -1)
(0.34825601625795765681 -0.93739945975029093095 0)
(-0.40306903033627056177 -0.91516957815684563116 0)
(-0 0 1)
(0 0 -1)
(-0.29201288951834275531 -0.95641438318081983816 -0)
(-0 0 -1)
(0.29201288951834275531 -0.95641438318081983816 0)
(-0.34825601625795765681 -0.93739945975029093095 0)
(-0 0 1)
(0 0 -1)
(-0.23492557260108370976 -0.97201336170757091093 -0)
(-0 0 -1)
(0.23492557260108370976 -0.97201336170757091093 0)
(-0.29201288951834275531 -0.95641438318081983816 0)
(-0 0 1)
(0 0 -1)
(-0.17686116273210170102 -0.98423580971078727941 -0)
(-0 0 -1)
(0.17686116273210170102 -0.98423580971078727941 0)
(-0.23492557260108370976 -0.97201336170757091093 0)
(-0 0 1)
(0 0 -1)
(-0.11829626719487616737 -0.99297834476274371429 -0)
(-0 0 -1)
(0.11829626719487616737 -0.99297834476274371429 0)
(-0.17686116273210170102 -0.98423580971078727941 0)
(-0 0 1)
(0 0 -1)
(-0.05922951306345025646 -0.99824439131019737648 -0)
(0 -1 0)
(-0 0 -1)
(0.05922951306345025646 -0.99824439131019737648 0)
(-0.11829626719487616737 -0.99297834476274371429 0)
(-0 0 1)
(-0.05922951306345025646 -0.99824439131019737648 0)
(-0 0 1)
(0 -1 0)
(0 0 1)
(0.05922951306345025646 -0.99824439131019737648 0)
(0.11829626719487616737 -0.99297834476274371429 0)
(0 0 1)
(0.17686116273210170102 -0.98423580971078727941 0)
(0 0 1)
(0.23492557260108370976 -0.97201336170757091093 0)
(0 0 1)
(0.29201288951834275531 -0.95641438318081983816 0)
(0 0 1)
(0.34825601625795765681 -0.93739945975029093095 0)
(0 0 1)
(0.40306903033627056177 -0.91516957815684563116 0)
(0 0 1)
(0.45668743761753238797 -0.88962721649145404257 0)
(0 0 1)
(0.50847481103634784017 -0.86107686447932763052 0)
(0 0 1)
(0.55869840671637005514 -0.82937090034108951198 0)
(0 0 1)
(0.60675137492945763196 -0.79489167124911608298 0)
(0 0 1)
(0.65286159725129555564 -0.75747721736992679187 0)
(0 0 1)
(0.69651577205661441283 -0.71754148261712236145 0)
(0 0 1)
(0.73785741273482707836 -0.67495661969660458723 0)
(0 0 1)
(0.77650556663886971531 -0.63011039110527933271 0)
(0 0 1)
(0.81249674494834778216 -0.582965727507491982 0)
(0 0 1)
(0.84559183507111157496 -0.53382998085633026619 0)
(0 0 1)
(0.87573261774789001866 -0.48279641901367464918 0)
(0 0 1)
(0.90280496393345943673 -0.43005022624933575415 0)
(0 0 1)
(0.92668068055894237123 -0.37584959262824180204 0)
(0 0 1)
(0.94733796396929403905 -0.32023551024599472559 0)
(0 0 1)
(0.96462446847156790852 -0.26362783393629968254 0)
(0 0 1)
(0.97856792147016458117 -0.2059243139349063445 0)
(0 0 1)
(0.98903171425148272977 -0.14770331142115111778 0)
(0 0 1)
(0.99605141987158452022 -0.088778200994391306966 0)
(0 0 1)
)

// normal volume types

420
(
0
0
0
0
0
0
0
0
0
0
0
0
0
0
0
0
0
0
0
0
0
0
0
0
0
0
0
0
0
0
0
0
0
0
0
0
0
0
0
0
0
0
0
0
0
0
0
0
0
0
0
0
0
0
0
0
0
0
0
0
0
0
0
0
0
0
0
0
0
0
0
0
0
0
0
0
0
0
0
0
0
0
0
0
0
0
0
0
0
0
0
0
0
0
0
0
0
0
0
0
0
0
0
0
0
0
0
0
0
0
0
0
0
0
0
0
0
0
0
0
0
0
0
0
0
0
0
0
0
0
0
0
0
0
0
0
0
0
0
0
0
0
0
0
0
0
0
0
0
0
0
0
0
0
0
0
0
0
0
0
0
0
0
0
0
0
0
0
0
0
0
0
0
0
0
0
0
0
0
0
0
0
0
0
0
0
0
0
0
0
0
0
0
0
0
0
0
0
0
0
0
0
0
0
0
0
0
0
0
0
0
0
0
0
0
0
0
0
0
0
0
0
0
0
0
0
0
0
0
0
0
0
0
0
0
0
0
0
0
0
0
0
0
0
0
0
0
0
0
0
0
0
0
0
0
0
0
0
0
0
0
0
0
0
0
0
0
0
0
0
0
0
0
0
0
0
0
0
0
0
0
0
0
0
0
0
0
0
0
0
0
0
0
0
0
0
0
0
0
0
0
0
0
0
0
0
0
0
0
0
0
0
0
0
0
0
0
0
0
0
0
0
0
0
0
0
0
0
0
0
0
0
0
0
0
0
0
0
0
0
0
0
0
0
0
0
0
0
0
0
0
0
0
0
0
0
0
0
0
0
0
0
0
0
0
0
0
0
0
0
0
0
0
0
0
0
0
0
0
0
0
0
0
0
0
0
0
0
0
0
0
0
0
0
0
0
0
0
0
0
0
0
0
0
0
0
0
0
0
0
0
0
0
0
0
0
0
0
0
0
)

// normalDirections

212
(
2(1 -1)
2(1 -1)
2(1 -1)
2(1 -1)
2(1 -1)
2(1 -1)
2(1 -1)
2(1 -1)
2(1 -1)
2(1 -1)
2(1 -1)
2(1 -1)
2(1 -1)
2(1 -1)
2(1 -1)
2(1 -1)
2(1 -1)
2(1 -1)
2(1 -1)
2(1 -1)
2(1 -1)
2(1 -1)
2(1 -1)
2(1 -1)
2(1 -1)
2(1 -1)
2(1 -1)
2(1 -1)
2(1 -1)
2(1 -1)
2(1 -1)
2(1 -1)
2(1 -1)
2(1 -1)
2(1 -1)
2(1 -1)
2(1 -1)
2(1 -1)
2(1 -1)
2(1 -1)
2(1 -1)
2(1 -1)
2(1 -1)
2(1 -1)
2(1 -1)
2(1 -1)
2(1 -1)
2(1 -1)
2(1 -1)
2(1 -1)
2(1 -1)
2(1 -1)
2(1 -1)
2(1 -1)
2(1 -1)
2(1 -1)
2(1 -1)
2(1 -1)
2(1 -1)
2(1 -1)
2(1 -1)
2(1 -1)
2(1 -1)
2(1 -1)
2(1 -1)
2(1 -1)
2(1 -1)
2(1 -1)
2(1 -1)
2(1 -1)
2(1 -1)
2(1 -1)
2(1 -1)
2(1 -1)
2(1 -1)
2(1 -1)
2(1 -1)
2(1 -1)
2(1 -1)
2(1 -1)
2(1 -1)
2(1 -1)
2(1 -1)
2(1 -1)
2(1 -1)
2(1 -1)
2(1 -1)
2(1 -1)
2(1 -1)
2(1 -1)
2(1 -1)
2(1 -1)
2(1 -1)
2(1 -1)
2(1 -1)
2(1 -1)
2(1 -1)
2(1 -1)
2(1 -1)
2(1 -1)
2(1 -1)
2(1 -1)
2(1 -1)
2(1 -1)
2(1 -1)
2(1 -1)
2(1 -1)
2(1 -1)
2(1 -1)
2(1 -1)
2(1 -1)
2(1 -1)
2(1 -1)
2(1 -1)
2(1 -1)
2(1 -1)
2(1 -1)
2(1 -1)
2(1 -1)
2(1 -1)
2(1 -1)
2(1 -1)
2(1 -1)
2(1 -1)
2(1 -1)
2(1 -1)
2(1 -1)
2(1 -1)
2(1 -1)
2(1 -1)
2(1 -1)
2(1 -1)
2(1 -1)
2(1 -1)
2(1 -1)
2(1 -1)
2(1 -1)
2(1 -1)
2(1 -1)
2(1 -1)
2(1 -1)
2(1 -1)
2(1 -1)
2(1 -1)
2(1 -1)
2(1 -1)
2(1 -1)
2(1 -1)
2(1 -1)
2(1 -1)
2(1 -1)
2(1 -1)
2(1 -1)
2(1 -1)
2(1 -1)
2(1 -1)
2(1 -1)
2(1 -1)
2(1 -1)
2(1 -1)
2(1 -1)
2(1 -1)
2(1 -1)
2(1 -1)
2(1 -1)
2(1 -1)
2(1 -1)
2(1 -1)
2(1 -1)
2(1 -1)
2(1 -1)
2(1 -1)
2(1 -1)
2(1 -1)
2(1 -1)
2(1 -1)
2(1 -1)
2(1 -1)
2(1 -1)
2(1 -1)
2(1 -1)
2(1 -1)
2(1 -1)
2(1 -1)
2(1 -1)
2(1 -1)
2(1 -1)
2(1 -1)
2(1 -1)
2(1 -1)
2(1 -1)
2(1 -1)
2(1 -1)
2(1 -1)
2(1 -1)
2(1 -1)
2(1 -1)
2(1 -1)
2(1 -1)
2(1 -1)
2(1 -1)
2(1 -1)
2(1 -1)
2(1 -1)
2(1 -1)
2(1 -1)
2(1 -1)
2(1 -1)
2(1 -1)
2(1 -1)
2(1 -1)
2(1 -1)
)

// edgeNormals

212
(
2(0 1)
2(2 3)
2(4 5)
2(6 7)
2(8 9)
2(10 11)
2(12 13)
2(14 15)
2(16 17)
2(18 19)
2(20 21)
2(22 23)
2(24 25)
2(26 27)
2(28 29)
2(30 31)
2(32 33)
2(34 35)
2(36 37)
2(38 39)
2(40 41)
2(42 43)
2(44 45)
2(46 47)
2(48 49)
2(50 51)
2(52 53)
2(54 55)
2(56 57)
2(58 59)
2(60 61)
2(62 63)
2(64 65)
2(66 67)