/*--------------------------------*- C++ -*----------------------------------*\
| =========                 |                                                 |
| \\      /  F ield         | OpenFOAM: The Open Source CFD Toolbox           |
|  \\    /   O peration     | Version:  v2012                                 |
|   \\  /    A nd           | Website:  www.openfoam.com                      |
|    \\/     M anipulation  |                                                 |
\*---------------------------------------------------------------------------*/
FoamFile
{
    version     2.0;
    format      ascii;
    class       dictionary;
    object      changeDictionaryDict;
}
// * * * * * * * * * * * * * * * * * * * * * * * * * * * * * * * * * * * * * //


T
{
    internalField   uniform 180;

    boundaryField
    {

        ".*"
        {
            type            zeroGradient;
            value           uniform 180;
        }
        
        ".*_to_outBox"
        {
            type            compressible::turbulentTemperatureCoupledBaffleMixed;
            Tnbr            T;
            kappaMethod     fluidThermo;
            value           uniform 180;
//            thicknessLayers ( 0.001 );
//            kappaLayers     ( 413 );
        }
        "procBoundary.*"
        {
            type            processor;
        }
    }
}

// ************************************************************************* //
