/*--------------------------------*- C++ -*----------------------------------*\
| =========                 |                                                 |
| \\      /  F ield         | OpenFOAM: The Open Source CFD Toolbox           |
|  \\    /   O peration     | Version:  v2012                                 |
|   \\  /    A nd           | Website:  www.openfoam.com                      |
|    \\/     M anipulation  |                                                 |
\*---------------------------------------------------------------------------*/
FoamFile
{
    version     2.0;
    format      ascii;
    class       dictionary;
    object      thermophysicalProperties;
}
// * * * * * * * * * * * * * * * * * * * * * * * * * * * * * * * * * * * * * //

thermoType
{
    type            heRhoThermo;
    mixture         pureMixture;
    //transport       const;
    transport       polynomial;
    //thermo          hConst;
    thermo          hPolynomial;
    //equationOfState rhoConst;
    equationOfState icoPolynomial;
    specie          specie;
    energy          sensibleEnthalpy;
}

mixture
{
    specie
    {
        //molWeight       466;
        molWeight       1;
    }
    equationOfState
    {
        //rho             2004.88;
        //rhoCoeffs<8>         (2170 -0.688 0 0 0 0 0 0 );
        rhoCoeffs<8>         (2004.88 0 0 0 0 0 0 0 );
    }
    thermodynamics
    {
        //Cp              1487.44;
        //Hf              0;
        Hf              0;
        Sf              0;
        CpCoeffs<8>         (1660 -0.719 0 0 0 0 0 0 );
    }
    transport
    {
        //mu              0.0079;
        //Pr              23.50;
        muCoeffs<8>         (0.054 -0.000311 0.000000496 0 0 0 0 0);
        kappaCoeffs<8>      (0.50 0 0 0 0 0 0 0);
    }
}

// ************************************************************************* //
